Program Version,EnergyPlus, Version 8.7.0-78a111df4a, YMD=2019.12.13 17:18
! <Version>, Version ID
 Version, 8.7
! <Timesteps per Hour>, #TimeSteps, Minutes per TimeStep {minutes}
 Timesteps per Hour,  6, 10
! <System Convergence Limits>, Minimum System TimeStep {minutes}, Max HVAC Iterations, Minimum Plant Iterations, Maximum Plant Iterations
 System Convergence Limits, 1, 20, 2, 8
! <Simulation Control>, Do Zone Sizing, Do System Sizing, Do Plant Sizing, Do Design Days, Do Weather Simulation, Do HVAC Sizing Simulation
 Simulation Control, No, No, No, No, Yes, No
! <Output Reporting Tolerances>, Tolerance for Time Heating Setpoint Not Met, Tolerance for Zone Cooling Setpoint Not Met Time
 Output Reporting Tolerances, 0.200, 0.200, 
! <Site:GroundTemperature:BuildingSurface>,Jan{C},Feb{C},Mar{C},Apr{C},May{C},Jun{C},Jul{C},Aug{C},Sep{C},Oct{C},Nov{C},Dec{C}
 Site:GroundTemperature:BuildingSurface,  18.00,  18.00,  18.00,  18.00,  18.00,  18.00,  18.00,  18.00,  18.00,  18.00,  18.00,  18.00
! <Site:GroundTemperature:FCfactorMethod>,Jan{C},Feb{C},Mar{C},Apr{C},May{C},Jun{C},Jul{C},Aug{C},Sep{C},Oct{C},Nov{C},Dec{C}
 Site:GroundTemperature:FCfactorMethod,  28.72,  29.17,  29.28,  29.16,  28.51,  27.79,  27.13,  26.66,  26.53,  26.78,  27.34,  28.03
! <Site:GroundTemperature:Shallow>,Jan{C},Feb{C},Mar{C},Apr{C},May{C},Jun{C},Jul{C},Aug{C},Sep{C},Oct{C},Nov{C},Dec{C}
 Site:GroundTemperature:Shallow,  13.00,  13.00,  13.00,  13.00,  13.00,  13.00,  13.00,  13.00,  13.00,  13.00,  13.00,  13.00
! <Site:GroundTemperature:Deep>,Jan{C},Feb{C},Mar{C},Apr{C},May{C},Jun{C},Jul{C},Aug{C},Sep{C},Oct{C},Nov{C},Dec{C}
 Site:GroundTemperature:Deep,  16.00,  16.00,  16.00,  16.00,  16.00,  16.00,  16.00,  16.00,  16.00,  16.00,  16.00,  16.00
! <Site:GroundReflectance>,Jan{dimensionless},Feb{dimensionless},Mar{dimensionless},Apr{dimensionless},May{dimensionless},Jun{dimensionless},Jul{dimensionless},Aug{dimensionless},Sep{dimensionless},Oct{dimensionless},Nov{dimensionless},Dec{dimensionless}
 Site:GroundReflectance,  0.20,  0.20,  0.20,  0.20,  0.20,  0.20,  0.20,  0.20,  0.20,  0.20,  0.20,  0.20
! <Site:GroundReflectance:SnowModifier>, Normal, Daylighting {dimensionless}
 Site:GroundReflectance:SnowModifier,   1.000,   1.000
! <Site:GroundReflectance:Snow>,Jan{dimensionless},Feb{dimensionless},Mar{dimensionless},Apr{dimensionless},May{dimensionless},Jun{dimensionless},Jul{dimensionless},Aug{dimensionless},Sep{dimensionless},Oct{dimensionless},Nov{dimensionless},Dec{dimensionless}
 Site:GroundReflectance:Snow,  0.20,  0.20,  0.20,  0.20,  0.20,  0.20,  0.20,  0.20,  0.20,  0.20,  0.20,  0.20
! <Site:GroundReflectance:Snow:Daylighting>,Jan{dimensionless},Feb{dimensionless},Mar{dimensionless},Apr{dimensionless},May{dimensionless},Jun{dimensionless},Jul{dimensionless},Aug{dimensionless},Sep{dimensionless},Oct{dimensionless},Nov{dimensionless},Dec{dimensionless}
 Site:GroundReflectance:Snow:Daylighting,  0.20,  0.20,  0.20,  0.20,  0.20,  0.20,  0.20,  0.20,  0.20,  0.20,  0.20,  0.20
! <Environment:Weather Station>,Wind Sensor Height Above Ground {m},Wind Speed Profile Exponent {},Wind Speed Profile Boundary Layer Thickness {m},Air Temperature Sensor Height Above Ground {m},Wind Speed Modifier Coefficient-Internal,Temperature Modifier Coefficient-Internal
Environment:Weather Station,10.000,0.140,270.000,1.500,1.586,9.750E-003
! <Site:Location>, Location Name, Latitude {N+/S- Deg}, Longitude {E+/W- Deg},  Time Zone Number {GMT+/-}, Elevation {m},  Standard Pressure at Elevation {Pa}, Standard RhoAir at Elevation
Site:Location,MACTAN - PHL IWEC2 WMO#=986460,10.30,123.97,8.00,24.00,101037,1.2009
! <Building Information>, Building Name,North Axis {deg},Terrain,  Loads Convergence Tolerance Value,Temperature Convergence Tolerance Value,  Solar Distribution,Maximum Number of Warmup Days,Minimum Number of Warmup Days
 Building Information,SAFAD Building,0.000,City,4.00000E-002,0.40000,FullInteriorAndExterior,25,6
! <Inside Convection Algorithm>, Algorithm {Simple | TARP | CeilingDiffuser | AdaptiveConvectionAlgorithm}
Inside Convection Algorithm,TARP
! <Outside Convection Algorithm>, Algorithm {SimpleCombined | TARP | MoWitt | DOE-2 | AdaptiveConvectionAlgorithm}
Outside Convection Algorithm,DOE-2
! <Sky Radiance Distribution>, Value {Anisotropic}
Sky Radiance Distribution,Anisotropic
! <Zone Air Solution Algorithm>, Value {ThirdOrderBackwardDifference | AnalyticalSolution | EulerMethod}
 Zone Air Solution Algorithm, ThirdOrderBackwardDifference
! <Zone Air Carbon Dioxide Balance Simulation>, Simulation {Yes/No}, Carbon Dioxide Concentration
 Zone Air Carbon Dioxide Balance Simulation, No,N/A
! <Zone Air Generic Contaminant Balance Simulation>, Simulation {Yes/No}, Generic Contaminant Concentration
 Zone Air Generic Contaminant Balance Simulation, No,N/A
! <Zone Air Mass Flow Balance Simulation>, Enforce Mass Balance, Adjust Zone Mixing, Adjust Zone Infiltration {AddInfiltration | AdjustInfiltration | None}, Infiltration Zones {MixingSourceZonesOnly | AllZones}
 Zone Air Mass Flow Balance Simulation, No,N/A,N/A,N/A
! <Environment:Site Atmospheric Variation>,Wind Speed Profile Exponent {},Wind Speed Profile Boundary Layer Thickness {m},Air Temperature Gradient Coefficient {K/m}
Environment:Site Atmospheric Variation,0.330,460.000,6.500000E-003
! <Surface Geometry>,Starting Corner,Vertex Input Direction,Coordinate System,Daylight Reference Point Coordinate System,Rectangular (Simple) Surface Coordinate System
 Surface Geometry,UpperLeftCorner,Counterclockwise,RelativeCoordinateSystem,RelativeCoordinateSystem,RelativeToZoneOrigin
! <Surface Heat Transfer Algorithm>, Value {CTF - ConductionTransferFunction | EMPD - MoisturePenetrationDepthConductionTransferFunction | CondFD - ConductionFiniteDifference | HAMT - CombinedHeatAndMoistureFiniteElement} - Description,Inside Surface Max Temperature Limit{C}, Surface Convection Coefficient Lower Limit {W/m2-K}, Surface Convection Coefficient Upper Limit {W/m2-K}
Surface Heat Transfer Algorithm, CTF - ConductionTransferFunction,200,0.10,1000.0
! <Shading Summary>, Number of Fixed Detached Shades, Number of Building Detached Shades, Number of Attached Shades
 Shading Summary,0,84,0
! <Zone Summary>, Number of Zones, Number of Zone Surfaces, Number of SubSurfaces
 Zone Summary,77,554,96
! <Zone Information>,Zone Name,North Axis {deg},Origin X-Coordinate {m},Origin Y-Coordinate {m},Origin Z-Coordinate {m},Centroid X-Coordinate {m},Centroid Y-Coordinate {m},Centroid Z-Coordinate {m},Type,Zone Multiplier,Zone List Multiplier,Minimum X {m},Maximum X {m},Minimum Y {m},Maximum Y {m},Minimum Z {m},Maximum Z {m},Ceiling Height {m},Volume {m3},Zone Inside Convection Algorithm {Simple-Detailed-CeilingDiffuser-TrombeWall},Zone Outside Convection Algorithm {Simple-Detailed-Tarp-MoWitt-DOE-2-BLAST}, Floor Area {m2},Exterior Gross Wall Area {m2},Exterior Net Wall Area {m2},Exterior Window Area {m2}, Number of Surfaces, Number of SubSurfaces, Number of Shading SubSurfaces,  Part of Total Building Area
 Zone Information, AF1B12F,0.0,111.99,31.01,0.00,52.48,-38.76,8.21,1,1,1,44.56,60.58,-47.41,-30.81,6.03,10.39,4.36,600.02,TARP,DOE-2,137.62,158.29,90.69,67.60,6,2,0,Yes
 Zone Information, AF1B05,0.0,49.08,32.39,0.00,-20.06,-17.40,8.21,1,1,1,-26.30,-13.83,-22.35,-12.46,6.03,10.39,4.36,345.65,TARP,DOE-2,79.28,110.87,100.87,10.00,6,1,0,Yes
 Zone Information, AF1B04,0.0,38.13,39.63,0.00,-18.92,-10.23,8.21,1,1,1,-24.38,-13.46,-14.94,-5.52,6.03,10.39,4.36,293.52,TARP,DOE-2,67.32,62.78,62.78,0.00,6,0,0,Yes
 Zone Information, AF1B03,0.0,38.13,46.83,0.00,-17.08,-3.52,8.21,1,1,1,-22.48,-11.68,-8.00,0.96,6.03,10.39,4.36,273.95,TARP,DOE-2,62.83,99.36,99.36,0.00,6,0,0,Yes
 Zone Information, AF1B01,0.0,38.13,67.46,0.00,-15.14,7.53,8.21,1,1,1,-20.24,-10.04,0.70,14.37,6.03,10.39,4.36,384.48,TARP,DOE-2,88.18,116.22,116.22,0.00,6,0,0,Yes
 Zone Information, AF1B02,0.0,45.36,55.26,0.00,-8.31,5.66,8.21,1,1,1,-13.27,-3.34,-1.14,12.46,6.03,10.39,4.36,369.59,TARP,DOE-2,84.77,113.78,113.78,0.00,6,0,0,Yes
 Zone Information, AF1B12B,0.0,123.57,79.34,0.00,61.45,10.82,8.21,1,1,1,54.19,68.52,2.12,20.71,6.03,10.39,4.36,795.42,TARP,DOE-2,182.44,144.56,54.56,90.00,6,2,0,Yes
 Zone Information, AF1B12A,0.0,103.14,108.65,0.00,55.90,26.38,8.21,1,1,1,47.34,64.75,16.98,36.87,6.03,10.39,4.36,806.73,TARP,DOE-2,185.03,194.16,104.16,90.00,6,2,0,Yes
 Zone Information, AF1B10A-AF1B10B_1,0.0,109.86,54.08,0.00,44.88,-13.48,5.45,1,1,1,39.40,50.19,-17.53,-10.10,3.27,7.63,4.36,219.60,TARP,DOE-2,50.37,87.06,76.26,10.80,6,1,0,Yes
 Zone Information, AF1B10A-AF1B10B_2,0.0,109.86,60.01,0.00,45.77,-7.96,5.45,1,1,1,40.25,50.96,-11.81,-4.68,3.27,7.63,4.36,266.27,TARP,DOE-2,61.07,53.07,42.27,10.80,6,1,0,Yes
 Zone Information, AF1B10A-AF1B10B_4,0.0,106.93,73.17,0.00,45.43,4.28,5.45,1,1,1,39.66,50.84,0.76,8.42,3.27,7.63,4.36,277.28,TARP,DOE-2,63.60,53.62,42.82,10.80,6,1,0,Yes
 Zone Information, AF1B10A-AF1B10B_5,0.0,104.16,79.43,0.00,44.17,10.25,5.45,1,1,1,38.43,49.83,6.14,14.84,3.27,7.63,4.36,272.41,TARP,DOE-2,62.48,97.47,86.67,10.80,6,1,0,Yes
 Zone Information, AF1B10A-AF1B10B_3,0.0,108.85,66.64,0.00,46.03,-1.83,5.45,1,1,1,40.57,50.96,-5.14,1.66,3.27,7.63,4.36,270.97,TARP,DOE-2,62.15,53.43,42.63,10.80,6,1,0,Yes
 Zone Information, CONSERVATION LAB,0.0,96.52,90.27,0.00,37.45,23.80,5.45,1,1,1,29.95,45.33,16.30,32.12,3.27,7.63,4.36,542.89,TARP,DOE-2,124.52,196.38,176.38,20.00,6,2,0,Yes
 Zone Information, AF1B12E,0.0,126.28,39.49,0.00,58.38,-27.65,8.21,1,1,1,51.04,65.84,-35.95,-19.97,6.03,10.39,4.36,595.32,TARP,DOE-2,136.54,109.22,57.52,51.70,6,2,0,Yes
 Zone Information, AF1B12D,0.0,128.11,52.70,0.00,62.01,-15.92,8.21,1,1,1,55.46,68.43,-23.70,-9.18,6.03,10.39,4.36,580.26,TARP,DOE-2,133.09,105.68,43.68,62.00,6,2,0,Yes
 Zone Information, AF101,0.0,52.31,67.46,4.36,-7.89,7.16,12.01,1,1,1,-12.45,-3.34,1.86,12.46,10.39,13.63,3.24,204.37,TARP,DOE-2,63.08,74.44,60.04,14.41,6,2,0,Yes
 Zone Information, AF102,0.0,38.13,67.46,4.36,-14.73,9.04,12.01,1,1,1,-19.42,-10.04,3.71,14.37,10.39,13.63,3.24,212.61,TARP,DOE-2,65.62,76.26,42.30,33.96,6,3,0,Yes
 Zone Information, AF103,0.0,38.13,55.42,4.36,-17.63,-1.51,12.01,1,1,1,-22.02,-13.23,-5.78,2.76,10.39,13.63,3.24,160.93,TARP,DOE-2,49.67,67.94,50.31,17.63,6,2,0,Yes
 Zone Information, AF104,0.0,45.36,41.94,4.36,-19.41,-8.01,12.01,1,1,1,-23.77,-15.05,-12.15,-3.87,10.39,13.63,3.24,154.76,TARP,DOE-2,47.76,42.81,25.75,17.06,6,2,0,Yes
 Zone Information, ACC OFFICE,0.0,96.52,90.27,4.36,37.44,23.79,9.25,1,1,1,29.95,45.33,16.30,32.12,7.63,10.87,3.24,403.43,TARP,DOE-2,124.52,145.93,125.93,20.00,6,2,0,Yes
 Zone Information, SERVICE BUREAU,0.0,99.26,86.91,4.36,43.98,10.04,9.25,1,1,1,37.66,50.23,4.22,16.93,7.63,10.87,3.24,342.82,TARP,DOE-2,105.81,100.25,90.25,10.00,6,1,0,Yes
 Zone Information, AF111,0.0,107.44,71.43,4.36,45.57,2.26,9.25,1,1,1,39.99,50.87,-0.86,5.75,7.63,10.87,3.24,184.20,TARP,DOE-2,56.85,35.85,24.65,11.20,6,2,0,Yes
 Zone Information, AF109B,0.0,108.97,65.83,4.36,45.72,-8.34,9.25,1,1,1,40.25,50.87,-11.81,-5.41,7.63,10.87,3.24,172.64,TARP,DOE-2,53.28,34.39,23.19,11.20,6,2,0,Yes
 Zone Information, AF109A,0.0,109.86,60.01,4.36,44.88,-13.48,9.25,1,1,1,39.40,50.19,-17.53,-10.10,7.63,10.87,3.24,163.19,TARP,DOE-2,50.37,64.69,49.49,15.20,6,3,0,Yes
 Zone Information, CREATIVE HUB,0.0,101.56,29.74,4.36,19.52,-28.97,12.01,1,1,1,0.77,37.42,-38.80,-17.54,10.39,13.63,3.24,1209.87,TARP,DOE-2,373.42,309.55,309.55,0.00,8,0,0,Yes
 Zone Information, AF211,0.0,101.56,29.74,7.60,32.35,-31.92,15.25,1,1,1,27.28,37.42,-38.80,-25.04,13.63,16.87,3.24,284.81,TARP,DOE-2,87.90,86.15,72.60,13.55,6,2,0,Yes
 Zone Information, AF210,0.0,87.29,29.74,7.60,25.47,-30.03,15.25,1,1,1,20.40,30.54,-36.92,-23.15,13.63,16.87,3.24,284.81,TARP,DOE-2,87.90,46.23,32.69,13.55,6,2,0,Yes
 Zone Information, AF209,0.0,80.29,32.73,7.60,19.05,-26.72,15.25,1,1,1,14.45,23.66,-32.14,-21.29,13.63,16.87,3.24,211.40,TARP,DOE-2,65.25,45.32,32.01,13.31,6,2,0,Yes
 Zone Information, AF208,0.0,73.06,32.73,7.60,12.19,-24.83,15.25,1,1,1,7.47,16.92,-30.29,-19.38,13.63,16.87,3.24,218.81,TARP,DOE-2,67.53,46.91,33.16,13.74,6,2,0,Yes
 Zone Information, AF207,0.0,66.11,32.73,7.60,5.35,-22.95,15.25,1,1,1,0.77,9.94,-28.37,-17.54,13.63,16.87,3.24,210.04,TARP,DOE-2,64.83,75.25,62.00,13.25,6,2,0,Yes
 Zone Information, FINE ARTS DEPARTMENT,0.0,49.08,32.39,7.60,-19.44,-15.13,15.25,1,1,1,-26.30,-12.58,-22.35,-7.92,13.63,16.87,3.24,423.99,TARP,DOE-2,130.86,112.92,55.51,57.41,6,3,0,Yes
 Zone Information, FACULTY ROOM_FINE ARTS,0.0,38.13,55.42,7.60,-16.39,-4.03,15.25,1,1,1,-23.14,-9.65,-10.82,2.76,13.63,16.87,3.24,392.83,TARP,DOE-2,121.24,107.23,83.89,23.34,6,1,0,Yes
 Zone Information, AF215,0.0,85.99,99.01,7.60,37.44,23.79,12.49,1,1,1,29.95,45.33,16.30,32.12,10.87,14.11,3.24,403.43,TARP,DOE-2,124.52,112.86,110.36,2.50,6,1,0,Yes
 Zone Information, AF214,0.0,94.77,74.52,7.60,42.86,12.98,12.49,1,1,1,36.22,49.52,6.18,20.90,10.87,14.11,3.24,393.62,TARP,DOE-2,121.49,77.59,75.09,2.50,6,1,0,Yes
 Zone Information, AF213,0.0,108.78,66.54,7.60,45.39,1.17,12.49,1,1,1,39.47,50.87,-5.23,8.26,10.87,14.11,3.24,400.14,TARP,DOE-2,123.50,79.46,76.96,2.50,6,1,0,Yes
 Zone Information, AF212,0.0,108.78,66.54,7.60,45.18,-10.45,12.49,1,1,1,39.40,50.87,-17.53,-4.70,10.87,14.11,3.24,352.53,TARP,DOE-2,108.80,103.55,101.05,2.50,6,1,0,Yes
 Zone Information, DEAN OFFICE,0.0,62.79,62.38,7.60,4.01,7.61,15.25,1,1,1,0.41,7.61,2.94,12.28,13.63,16.87,3.24,139.21,TARP,DOE-2,42.96,43.62,35.19,8.42,6,1,0,Yes
 Zone Information, SAFAD CONFERENCE ROOM,0.0,57.59,70.64,7.60,-1.04,9.00,15.25,1,1,1,-4.69,2.60,4.32,13.68,13.63,16.87,3.24,141.48,TARP,DOE-2,43.67,61.02,52.44,8.58,6,1,0,Yes
 Zone Information, DEAN SECRETARY OFFICE,0.0,62.79,58.39,7.60,-0.16,2.40,15.25,1,1,1,-5.74,5.42,-0.91,5.71,13.63,16.87,3.24,135.64,TARP,DOE-2,41.86,46.91,46.91,0.00,6,0,0,Yes
 Zone Information, ARCHITECTURE DEPARTMENT,0.0,62.79,67.46,7.60,9.81,2.30,15.25,1,1,1,4.37,15.26,-3.24,7.84,13.63,16.87,3.24,258.89,TARP,DOE-2,79.91,57.05,42.77,14.28,6,1,0,Yes
 Zone Information, FACULTY ROOM_ARCHITECTURE,0.0,66.11,44.34,7.60,12.47,-7.14,15.25,1,1,1,3.84,20.50,-18.22,5.51,13.63,16.87,3.24,656.66,TARP,DOE-2,202.67,173.39,138.61,34.78,11,2,0,Yes
 Zone Information, AUXILLIARY OFFICES,0.0,38.13,58.39,7.60,-11.38,8.12,15.25,1,1,1,-19.42,-3.34,1.86,14.37,13.63,16.87,3.24,416.98,TARP,DOE-2,128.70,121.29,79.23,42.06,6,2,0,Yes
 Zone Information, AF304,0.0,38.13,67.46,10.84,-11.38,8.12,18.26,1,1,1,-19.42,-3.34,1.86,14.37,16.87,19.65,2.78,357.78,TARP,DOE-2,128.70,104.07,68.12,35.95,6,2,0,Yes
 Zone Information, AF306,0.0,62.79,67.46,10.84,12.43,1.58,18.26,1,1,1,4.37,20.50,-4.68,7.84,16.87,19.65,2.78,359.17,TARP,DOE-2,129.20,104.38,76.59,27.79,6,2,0,Yes
 Zone Information, VPPF,0.0,49.08,45.83,10.84,-16.19,-3.32,18.26,1,1,1,-22.74,-9.65,-9.39,2.76,16.87,19.65,2.78,291.79,TARP,DOE-2,104.96,83.74,66.41,17.33,6,1,0,Yes
 Zone Information, IPD_CR,0.0,49.08,41.94,10.84,-17.98,-9.81,18.26,1,1,1,-23.77,-12.18,-13.14,-6.49,16.87,19.65,2.78,118.47,TARP,DOE-2,42.61,21.64,21.64,0.00,6,0,0,Yes
 Zone Information, IPD,0.0,49.08,32.39,10.84,-19.76,-16.29,18.26,1,1,1,-26.30,-13.21,-22.35,-10.24,16.87,19.65,2.78,290.60,TARP,DOE-2,104.53,83.52,36.41,47.11,6,3,0,Yes
 Zone Information, AF307,0.0,77.03,58.39,10.84,12.14,-7.55,18.26,1,1,1,5.26,18.09,-13.05,-1.79,16.87,19.65,2.78,325.93,TARP,DOE-2,94.78,24.12,16.87,7.26,5,1,0,Yes
 Zone Information, AF2B06,0.0,122.17,26.48,-7.63,51.28,-40.51,4.40,1,1,1,44.56,58.03,-47.41,-33.98,2.76,6.03,3.27,298.84,TARP,DOE-2,91.39,90.83,74.83,16.00,6,2,0,Yes
 Zone Information, AF2B07A,0.0,114.48,38.29,-7.63,56.66,-32.20,4.40,1,1,1,48.88,63.63,-39.90,-24.73,2.76,6.03,3.27,1067.34,TARP,DOE-2,123.30,40.47,19.47,21.00,5,1,0,Yes
 Zone Information, PAINTING STUDIO_1,0.0,109.86,54.08,-7.63,45.13,-7.29,1.64,1,1,1,39.40,50.84,-17.53,1.66,0.00,3.27,3.27,551.71,TARP,DOE-2,168.72,144.42,144.42,0.00,6,0,0,Yes
 Zone Information, PAINTING STUDIO_2,0.0,97.26,69.59,-7.63,44.69,7.22,1.64,1,1,1,38.43,50.84,0.76,14.84,0.00,3.27,3.27,406.44,TARP,DOE-2,124.29,113.23,113.23,0.00,6,0,0,Yes
 Zone Information, PAINTING STUDIO_3,0.0,96.52,90.27,-7.63,37.44,23.79,1.64,1,1,1,29.95,45.33,16.30,32.12,0.00,3.27,3.27,407.17,TARP,DOE-2,124.52,147.29,147.29,0.00,6,0,0,Yes
 Zone Information, AF2B07B,0.0,127.34,47.13,-7.63,61.09,-20.51,4.40,1,1,1,53.51,67.61,-28.86,-12.83,2.76,6.03,3.27,1262.76,TARP,DOE-2,146.86,47.68,26.68,21.00,5,1,0,Yes
 Zone Information, CANTEEN,0.0,121.69,83.63,-10.39,57.27,20.40,1.38,1,1,1,47.34,67.85,6.12,36.87,0.00,2.76,2.76,303.48,TARP,DOE-2,313.13,30.80,30.80,0.00,4,0,0,Yes
 Zone Information, GENERATOR AND EE ROOM,0.0,122.17,26.48,-10.39,52.13,-39.21,1.38,1,1,1,44.56,59.88,-47.41,-31.60,0.00,2.76,2.76,347.17,TARP,DOE-2,125.79,124.08,124.08,0.00,6,0,0,Yes
 Zone Information, AF308,0.0,66.11,49.71,6.48,10.23,-14.30,18.26,1,1,1,3.84,15.80,-18.22,-10.16,16.87,19.65,2.78,201.52,TARP,DOE-2,58.60,45.28,45.28,0.00,5,0,0,Yes
 Zone Information, AF1B12C,0.0,127.16,65.93,-4.36,63.24,-3.65,8.21,1,1,1,57.46,68.52,-10.68,3.20,6.03,10.39,4.36,601.08,TARP,DOE-2,137.86,109.81,45.81,64.00,6,2,0,Yes
 Zone Information, AF110,0.0,50.87,-5.96,7.63,46.02,-3.08,9.25,1,1,1,40.68,50.87,-5.96,-0.15,7.63,10.87,3.24,169.63,TARP,DOE-2,52.36,33.59,23.99,9.60,6,2,0,Yes
 Zone Information, AF2B07C,0.0,56.78,-12.83,2.76,63.28,-7.84,4.40,1,1,1,56.78,68.47,-14.83,-1.74,2.76,6.03,3.27,1130.29,TARP,DOE-2,133.29,42.90,21.90,21.00,5,1,0,Yes
 Zone Information, AF2B07D,0.0,57.36,-1.74,2.76,62.50,4.94,4.40,1,1,1,55.19,68.47,-1.74,12.63,2.76,6.03,3.27,1226.12,TARP,DOE-2,147.08,47.69,26.69,21.00,5,1,0,Yes
 Zone Information, AF2B07E,0.0,55.19,10.24,2.76,59.16,17.06,4.40,1,1,1,51.31,65.98,10.24,24.26,2.76,6.03,3.27,1065.11,TARP,DOE-2,127.07,40.80,19.80,21.00,5,1,0,Yes
 Zone Information, AF2B07F,0.0,51.31,20.32,2.76,54.84,28.38,4.40,1,1,1,47.34,61.47,20.32,36.87,2.76,6.03,3.27,1101.05,TARP,DOE-2,133.73,80.71,59.71,21.00,5,1,0,Yes
 Zone Information, GUIDANCE OFFICE,0.0,-15.74,-22.35,10.39,-16.72,-17.13,12.01,1,1,1,-20.22,-13.21,-22.35,-11.91,10.39,13.63,3.24,143.52,TARP,DOE-2,44.30,91.93,69.81,22.12,6,2,0,Yes
 Zone Information, CLINIC,0.0,-17.69,-11.91,10.39,-19.33,-13.73,12.01,1,1,1,-20.96,-17.69,-16.13,-11.33,10.39,13.63,3.24,31.13,TARP,DOE-2,9.61,42.60,42.60,0.00,6,0,0,Yes
 Zone Information, GUIDANCE CONFERENCE,0.0,-20.96,-15.55,10.39,-22.37,-12.90,12.01,1,1,1,-24.93,-19.80,-15.55,-10.24,10.39,13.63,3.24,58.42,TARP,DOE-2,18.03,55.06,45.32,9.73,6,1,0,Yes
 Zone Information, GUIDANCE CONSELOR,0.0,-26.30,-19.45,10.39,-22.58,-17.79,12.01,1,1,1,-26.30,-18.85,-21.12,-14.46,10.39,13.63,3.24,105.63,TARP,DOE-2,32.60,74.37,53.31,21.06,6,2,0,Yes
 Zone Information, FIRST FLOOR CR,0.0,37.42,-26.92,10.39,39.52,-32.11,12.01,1,1,1,35.07,43.97,-37.30,-26.92,10.39,13.63,3.24,195.65,TARP,DOE-2,60.39,72.81,72.81,0.00,6,0,0,Yes
 Zone Information, SECOND FLOOR CR,0.0,37.42,-26.92,10.39,39.52,-32.11,15.25,1,1,1,35.07,43.97,-37.30,-26.92,13.63,16.87,3.24,195.65,TARP,DOE-2,60.39,72.81,72.81,0.00,6,0,0,Yes
 Zone Information, BASEMENT 3 CR,0.0,37.42,-26.92,10.39,39.52,-32.11,8.77,1,1,1,35.07,43.97,-37.30,-26.92,7.15,10.39,3.24,195.65,TARP,DOE-2,60.39,101.63,101.63,0.00,6,0,0,Yes
 Zone Information, PUMP ROOM,0.0,94.41,41.61,-7.63,39.13,-34.63,1.38,1,1,1,35.23,43.02,-37.44,-31.82,0.00,2.76,2.76,75.58,TARP,DOE-2,27.38,60.26,60.26,0.00,6,0,0,Yes
 Zone Information, AF305,0.0,-5.74,1.86,16.87,1.07,6.87,18.26,1,1,1,-5.74,7.61,-0.91,13.68,16.87,19.65,2.78,359.91,TARP,DOE-2,128.50,97.29,97.29,0.00,5,0,0,Yes
 Zone Information, CB4 CLASSROOM,0.0,67.85,7.83,0.00,62.82,2.64,1.38,1,1,1,56.78,68.47,-1.74,7.83,0.00,2.76,2.76,268.07,TARP,DOE-2,97.13,48.22,26.22,22.00,6,2,0,Yes
 Zone Information, CB3 CLASSROOM,0.0,67.85,7.83,0.00,62.70,-6.10,1.38,1,1,1,56.64,68.47,-11.30,-1.74,0.00,2.76,2.76,268.07,TARP,DOE-2,97.13,48.22,26.22,22.00,6,2,0,Yes
 Zone Information, CB2 CLASSROOM,0.0,67.85,7.83,0.00,61.25,-14.72,1.38,1,1,1,54.73,67.62,-20.61,-9.58,0.00,2.76,2.76,268.07,TARP,DOE-2,97.13,48.22,26.22,22.00,6,2,0,Yes
 Zone Information, CB1 CLASSROOM,0.0,67.85,7.83,0.00,58.49,-23.02,1.38,1,1,1,51.66,65.31,-29.46,-17.21,0.00,2.76,2.76,268.07,TARP,DOE-2,97.13,78.87,56.87,22.00,6,2,0,Yes
! <Zone Internal Gains Nominal>,Zone Name, Floor Area {m2},# Occupants,Area per Occupant {m2/person},Occupant per Area {person/m2},Interior Lighting {W/m2},Electric Load {W/m2},Gas Load {W/m2},Other Load {W/m2},Hot Water Eq {W/m2},Steam Equipment {W/m2},Sum Loads per Area {W/m2},Outdoor Controlled Baseboard Heat
 Zone Internal Gains Nominal, AF1B12F,137.62,100.0,1.376,0.727,4.709,3.757,0.000,0.000,0.000,0.000,8.465,No
 Zone Internal Gains Nominal, AF1B05,79.28,0.0,N/A,0.000,0.000,0.000,0.000,0.000,0.000,0.000,0.000,No
 Zone Internal Gains Nominal, AF1B04,67.32,0.0,N/A,0.000,4.278,3.565,0.000,0.000,0.000,0.000,7.843,No
 Zone Internal Gains Nominal, AF1B03,62.83,0.0,N/A,0.000,4.584,3.820,0.000,0.000,0.000,0.000,8.403,No
 Zone Internal Gains Nominal, AF1B01,88.18,0.0,N/A,0.000,0.000,0.000,0.000,0.000,0.000,0.000,0.000,No
 Zone Internal Gains Nominal, AF1B02,84.77,0.0,N/A,0.000,0.000,0.000,0.000,0.000,0.000,0.000,0.000,No
 Zone Internal Gains Nominal, AF1B12B,182.44,100.0,1.824,0.548,3.552,2.834,0.000,0.000,0.000,0.000,6.386,No
 Zone Internal Gains Nominal, AF1B12A,185.03,100.0,1.850,0.540,3.502,2.794,0.000,0.000,0.000,0.000,6.296,No
 Zone Internal Gains Nominal, AF1B10A-AF1B10B_1,50.37,0.0,N/A,0.000,9.292,2.383,0.000,0.000,0.000,0.000,11.674,No
 Zone Internal Gains Nominal, AF1B10A-AF1B10B_2,61.07,0.0,N/A,0.000,7.663,1.965,0.000,0.000,0.000,0.000,9.628,No
 Zone Internal Gains Nominal, AF1B10A-AF1B10B_4,63.60,0.0,N/A,0.000,7.359,1.887,0.000,0.000,0.000,0.000,9.246,No
 Zone Internal Gains Nominal, AF1B10A-AF1B10B_5,62.48,0.0,N/A,0.000,8.067,0.000,0.000,0.000,0.000,0.000,8.067,No
 Zone Internal Gains Nominal, AF1B10A-AF1B10B_3,62.15,0.0,N/A,0.000,7.530,1.931,0.000,0.000,0.000,0.000,9.461,No
 Zone Internal Gains Nominal, CONSERVATION LAB,124.52,10.0,12.452,8.031E-002,0.000,0.000,0.000,0.000,0.000,0.000,0.000,No
 Zone Internal Gains Nominal, AF1B12E,136.54,100.0,1.365,0.732,4.746,3.786,0.000,0.000,0.000,0.000,8.532,No
 Zone Internal Gains Nominal, AF1B12D,133.09,100.0,1.331,0.751,4.869,3.885,0.000,0.000,0.000,0.000,8.754,No
 Zone Internal Gains Nominal, AF101,63.08,100.0,0.631,1.585,3.424,6.658,0.000,0.000,0.000,0.000,10.083,No
 Zone Internal Gains Nominal, AF102,65.62,100.0,0.656,1.524,3.292,6.401,0.000,0.000,0.000,0.000,9.692,No
 Zone Internal Gains Nominal, AF103,49.67,100.0,0.497,2.013,4.349,8.456,0.000,0.000,0.000,0.000,12.804,No
 Zone Internal Gains Nominal, AF104,47.76,100.0,0.478,2.094,4.522,8.793,0.000,0.000,0.000,0.000,13.315,No
 Zone Internal Gains Nominal, ACC OFFICE,124.52,10.0,12.452,8.031E-002,4.048,10.738,0.000,0.000,0.000,0.000,14.785,No
 Zone Internal Gains Nominal, SERVICE BUREAU,105.81,10.0,10.581,9.451E-002,6.805,10.396,0.000,0.000,0.000,0.000,17.201,No
 Zone Internal Gains Nominal, AF111,56.85,100.0,0.569,1.759,1.900,59.806,0.000,0.000,0.000,0.000,61.705,No
 Zone Internal Gains Nominal, AF109B,53.28,100.0,0.533,1.877,5.405,116.356,0.000,0.000,0.000,0.000,121.761,No
 Zone Internal Gains Nominal, AF109A,50.37,100.0,0.504,1.985,4.289,125.481,0.000,0.000,0.000,0.000,129.769,No
 Zone Internal Gains Nominal, CREATIVE HUB,373.42,10.0,37.342,2.678E-002,4.435,0.536,0.000,0.000,0.000,0.000,4.970,No
 Zone Internal Gains Nominal, AF211,87.90,100.0,0.879,1.138,3.583,3.151,0.000,0.000,0.000,0.000,6.735,No
 Zone Internal Gains Nominal, AF210,87.90,100.0,0.879,1.138,3.583,3.151,0.000,0.000,0.000,0.000,6.735,No
 Zone Internal Gains Nominal, AF209,65.25,100.0,0.652,1.533,3.724,4.598,0.000,0.000,0.000,0.000,8.322,No
 Zone Internal Gains Nominal, AF208,67.53,100.0,0.675,1.481,3.598,4.442,0.000,0.000,0.000,0.000,8.040,No
 Zone Internal Gains Nominal, AF207,64.83,100.0,0.648,1.543,3.748,4.628,0.000,0.000,0.000,0.000,8.376,No
 Zone Internal Gains Nominal, FINE ARTS DEPARTMENT,130.86,10.0,13.086,7.642E-002,1.651,2.598,0.000,0.000,0.000,0.000,4.249,No
 Zone Internal Gains Nominal, FACULTY ROOM_FINE ARTS,121.24,10.0,12.124,8.248E-002,5.642,5.914,0.000,0.000,0.000,0.000,11.555,No
 Zone Internal Gains Nominal, AF215,124.52,100.0,1.245,0.803,6.489,1.687,0.000,0.000,0.000,0.000,8.176,No
 Zone Internal Gains Nominal, AF214,121.49,100.0,1.215,0.823,6.651,1.729,0.000,0.000,0.000,0.000,8.379,No
 Zone Internal Gains Nominal, AF213,123.50,100.0,1.235,0.810,5.368,2.429,0.000,0.000,0.000,0.000,7.798,No
 Zone Internal Gains Nominal, AF212,108.80,100.0,1.088,0.919,6.093,2.757,0.000,0.000,0.000,0.000,8.851,No
 Zone Internal Gains Nominal, DEAN OFFICE,42.96,10.0,4.296,0.233,2.933,4.655,0.000,0.000,0.000,0.000,7.588,No
 Zone Internal Gains Nominal, SAFAD CONFERENCE ROOM,43.67,10.0,4.367,0.229,2.886,13.741,0.000,0.000,0.000,0.000,16.626,No
 Zone Internal Gains Nominal, DEAN SECRETARY OFFICE,41.86,10.0,4.186,0.239,4.300,5.183,0.000,0.000,0.000,0.000,9.483,No
 Zone Internal Gains Nominal, ARCHITECTURE DEPARTMENT,79.91,10.0,7.991,0.125,4.167,11.514,0.000,0.000,0.000,0.000,15.681,No
 Zone Internal Gains Nominal, FACULTY ROOM_ARCHITECTURE,202.67,10.0,20.267,4.934E-002,3.641,8.373,0.000,0.000,0.000,0.000,12.014,No
 Zone Internal Gains Nominal, AUXILLIARY OFFICES,128.70,10.0,12.870,7.770E-002,4.825,8.858,0.000,0.000,0.000,0.000,13.683,No
 Zone Internal Gains Nominal, AF304,128.70,100.0,1.287,0.777,6.923,4.196,0.000,0.000,0.000,0.000,11.119,No
 Zone Internal Gains Nominal, AF306,129.20,100.0,1.292,0.774,6.153,4.002,0.000,0.000,0.000,0.000,10.155,No
 Zone Internal Gains Nominal, VPPF,104.96,10.0,10.496,9.527E-002,2.058,7.050,0.000,0.000,0.000,0.000,9.108,No
 Zone Internal Gains Nominal, IPD_CR,42.61,0.0,N/A,0.000,1.690,0.000,0.000,0.000,0.000,0.000,1.690,No
 Zone Internal Gains Nominal, IPD,104.53,10.0,10.453,9.567E-002,11.021,9.758,0.000,0.000,0.000,0.000,20.779,No
 Zone Internal Gains Nominal, AF307,94.78,100.0,0.948,1.055,6.869,2.532,0.000,0.000,0.000,0.000,9.401,No
 Zone Internal Gains Nominal, AF2B06,91.39,100.0,0.914,1.094,4.727,1.313,0.000,0.000,0.000,0.000,6.040,No
 Zone Internal Gains Nominal, AF2B07A,123.30,100.0,1.233,0.811,5.255,1.946,0.000,0.000,0.000,0.000,7.202,No
 Zone Internal Gains Nominal, PAINTING STUDIO_1,168.72,0.0,N/A,0.000,0.000,0.000,0.000,0.000,0.000,0.000,0.000,No
 Zone Internal Gains Nominal, PAINTING STUDIO_2,124.29,0.0,N/A,0.000,0.000,0.000,0.000,0.000,0.000,0.000,0.000,No
 Zone Internal Gains Nominal, PAINTING STUDIO_3,124.52,0.0,N/A,0.000,0.000,0.000,0.000,0.000,0.000,0.000,0.000,No
 Zone Internal Gains Nominal, AF2B07B,146.86,100.0,1.469,0.681,4.412,2.043,0.000,0.000,0.000,0.000,6.455,No
 Zone Internal Gains Nominal, CANTEEN,313.13,0.0,N/A,0.000,0.000,0.000,0.000,0.000,0.000,0.000,0.000,No
 Zone Internal Gains Nominal, GENERATOR AND EE ROOM,125.79,0.0,N/A,0.000,0.859,0.000,0.000,0.000,0.000,0.000,0.859,No
 Zone Internal Gains Nominal, AF308,58.60,100.0,0.586,1.706,11.109,4.095,0.000,0.000,0.000,0.000,15.204,No
 Zone Internal Gains Nominal, AF1B12C,137.86,100.0,1.379,0.725,4.700,3.750,0.000,0.000,0.000,0.000,8.450,No
 Zone Internal Gains Nominal, AF110,52.36,100.0,0.524,1.910,2.063,64.941,0.000,0.000,0.000,0.000,67.004,No
 Zone Internal Gains Nominal, AF2B07C,133.29,100.0,1.333,0.750,4.861,1.463,0.000,0.000,0.000,0.000,6.324,No
 Zone Internal Gains Nominal, AF2B07D,147.08,100.0,1.471,0.680,4.406,1.326,0.000,0.000,0.000,0.000,5.731,No
 Zone Internal Gains Nominal, AF2B07E,127.07,100.0,1.271,0.787,5.099,1.535,0.000,0.000,0.000,0.000,6.634,No
 Zone Internal Gains Nominal, AF2B07F,133.73,100.0,1.337,0.748,4.846,1.458,0.000,0.000,0.000,0.000,6.304,No
 Zone Internal Gains Nominal, GUIDANCE OFFICE,44.30,10.0,4.430,0.226,0.813,1.354,0.000,0.000,0.000,0.000,2.167,No
 Zone Internal Gains Nominal, CLINIC,9.61,10.0,0.961,1.041,3.747,8.015,0.000,0.000,0.000,0.000,11.762,No
 Zone Internal Gains Nominal, GUIDANCE CONFERENCE,18.03,10.0,1.803,0.555,7.987,33.277,0.000,0.000,0.000,0.000,41.264,No
 Zone Internal Gains Nominal, GUIDANCE CONSELOR,32.60,10.0,3.260,0.307,2.484,3.067,0.000,0.000,0.000,0.000,5.552,No
 Zone Internal Gains Nominal, FIRST FLOOR CR,60.39,0.0,N/A,0.000,2.385,0.000,0.000,0.000,0.000,0.000,2.385,No
 Zone Internal Gains Nominal, SECOND FLOOR CR,60.39,0.0,N/A,0.000,2.385,0.000,0.000,0.000,0.000,0.000,2.385,No
 Zone Internal Gains Nominal, BASEMENT 3 CR,60.39,0.0,N/A,0.000,2.385,0.000,0.000,0.000,0.000,0.000,2.385,No
 Zone Internal Gains Nominal, PUMP ROOM,27.38,0.0,N/A,0.000,1.315,76.686,0.000,0.000,0.000,0.000,78.001,No
 Zone Internal Gains Nominal, AF305,128.50,100.0,1.285,0.778,5.066,1.401,0.000,0.000,0.000,0.000,6.467,No
 Zone Internal Gains Nominal, CB4 CLASSROOM,97.13,100.0,0.971,1.030,6.672,0.000,0.000,0.000,0.000,0.000,6.672,No
 Zone Internal Gains Nominal, CB3 CLASSROOM,97.13,100.0,0.971,1.030,6.672,0.000,0.000,0.000,0.000,0.000,6.672,No
 Zone Internal Gains Nominal, CB2 CLASSROOM,97.13,100.0,0.971,1.030,6.672,0.000,0.000,0.000,0.000,0.000,6.672,No
 Zone Internal Gains Nominal, CB1 CLASSROOM,97.13,100.0,0.971,1.030,6.672,0.000,0.000,0.000,0.000,0.000,6.672,No
! <People Internal Gains Nominal>,Name,Schedule Name,Zone Name,Zone Floor Area {m2},# Zone Occupants,Number of People {},People/Floor Area {person/m2},Floor Area per person {m2/person},Fraction Radiant,Fraction Convected,Sensible Fraction Calculation,Activity level,ASHRAE 55 Warnings,Carbon Dioxide Generation Rate,Nominal Minimum Number of People,Nominal Maximum Number of People
 People Internal Gains Nominal, AF1B12F_OCCUPANCY,AF1B12FOCCUPANTS,AF1B12F,137.62,100.0,100.0,0.727,1.376,0.771,0.229,0.610,ASSUMPTIONACTIVITYSCHEDULE,No,3.8200E-008,0,28
 People Internal Gains Nominal, AF1B12B_OCCUPANCY,AF1B12BOCCUPANTS,AF1B12B,182.44,100.0,100.0,0.548,1.824,0.771,0.229,0.610,ASSUMPTIONACTIVITYSCHEDULE,No,3.8200E-008,0,51
 People Internal Gains Nominal, AF1B12A_OCCUPANCY,AF1B12AOCCUPANTS,AF1B12A,185.03,100.0,100.0,0.540,1.850,0.771,0.229,0.610,ASSUMPTIONACTIVITYSCHEDULE,No,3.8200E-008,0,45
 People Internal Gains Nominal, AF1B12E_OCCUPANCY,AF1B12EOCCUPANTS,AF1B12E,136.54,100.0,100.0,0.732,1.365,0.771,0.229,0.610,ASSUMPTIONACTIVITYSCHEDULE,No,3.8200E-008,0,27
 People Internal Gains Nominal, AF1B12D_OCCUPANCY,AF1B12DOCCUPANTS,AF1B12D,133.09,100.0,100.0,0.751,1.331,0.771,0.229,0.610,ASSUMPTIONACTIVITYSCHEDULE,No,3.8200E-008,0,34
 People Internal Gains Nominal, AF101_OCCUPANCY,AF101OCCUPANTS,AF101,63.08,100.0,100.0,1.585,0.631,0.771,0.229,0.610,ASSUMPTIONACTIVITYSCHEDULE,No,3.8200E-008,0,46
 People Internal Gains Nominal, AF102_OCCUPANCY,AF102OCCUPANTS,AF102,65.62,100.0,100.0,1.524,0.656,0.771,0.229,0.610,ASSUMPTIONACTIVITYSCHEDULE,No,3.8200E-008,0,46
 People Internal Gains Nominal, AF103_OCCUPANCY,AF103OCCUPANTS,AF103,49.67,100.0,100.0,2.013,0.497,0.771,0.229,0.610,ASSUMPTIONACTIVITYSCHEDULE,No,3.8200E-008,0,45
 People Internal Gains Nominal, AF104_OCCUPANCY,AF104OCCUPANTS,AF104,47.76,100.0,100.0,2.094,0.478,0.771,0.229,0.610,ASSUMPTIONACTIVITYSCHEDULE,No,3.8200E-008,0,45
 People Internal Gains Nominal, AF111_OCCUPANCY,AF111OCCUPANTS,AF111,56.85,100.0,100.0,1.759,0.569,0.771,0.229,0.610,ACTIVITYSCHEDULESCOMPLAB,No,3.8200E-008,0,43
 People Internal Gains Nominal, AF109B_OCCUPANCY,AF109BOCCUPANTS,AF109B,53.28,100.0,100.0,1.877,0.533,0.771,0.229,0.610,ACTIVITYSCHEDULESCOMPLAB,No,3.8200E-008,0,30
 People Internal Gains Nominal, AF109A_OCCUPANCY,AF109AOCCUPANTS,AF109A,50.37,100.0,100.0,1.985,0.504,0.771,0.229,0.610,ACTIVITYSCHEDULESCOMPLAB,No,3.8200E-008,0,18
 People Internal Gains Nominal, AF211_OCCUPANCY,AF211OCCUPANTS,AF211,87.90,100.0,100.0,1.138,0.879,0.771,0.229,0.610,ASSUMPTIONACTIVITYSCHEDULE,No,3.8200E-008,0,47
 People Internal Gains Nominal, AF210_OCCUPANCY,AF210OCCUPANTS,AF210,87.90,100.0,100.0,1.138,0.879,0.771,0.229,0.610,ASSUMPTIONACTIVITYSCHEDULE,No,3.8200E-008,0,38
 People Internal Gains Nominal, AF209_OCCUPANCY,AF209OCCUPANTS,AF209,65.25,100.0,100.0,1.533,0.652,0.771,0.229,0.610,ASSUMPTIONACTIVITYSCHEDULE,No,3.8200E-008,0,46
 People Internal Gains Nominal, AF208_OCCUPANCY,AF208OCCUPANTS,AF208,67.53,100.0,100.0,1.481,0.675,0.771,0.229,0.610,ASSUMPTIONACTIVITYSCHEDULE,No,3.8200E-008,0,45
 People Internal Gains Nominal, AF207_OCCUPANCY,AF207OCCUPANTS,AF207,64.83,100.0,100.0,1.543,0.648,0.771,0.229,0.610,ASSUMPTIONACTIVITYSCHEDULE,No,3.8200E-008,0,33
 People Internal Gains Nominal, AF215_OCCUPANCY,AF215OCCUPANTS,AF215,124.52,100.0,100.0,0.803,1.245,0.771,0.229,0.610,ASSUMPTIONACTIVITYSCHEDULE,No,3.8200E-008,0,2
 People Internal Gains Nominal, AF214_OCCUPANCY,AF214OCCUPANTS,AF214,121.49,100.0,100.0,0.823,1.215,0.771,0.229,0.610,ASSUMPTIONACTIVITYSCHEDULE,No,3.8200E-008,0,33
 People Internal Gains Nominal, AF213_OCCUPANCY,AF213OCCUPANTS,AF213,123.50,100.0,100.0,0.810,1.235,0.771,0.229,0.610,ASSUMPTIONACTIVITYSCHEDULE,No,3.8200E-008,0,5
 People Internal Gains Nominal, AF212_OCCUPANCY,AF212OCCUPANTS,AF212,108.80,100.0,100.0,0.919,1.088,0.771,0.229,0.610,ASSUMPTIONACTIVITYSCHEDULE,No,3.8200E-008,0,40
 People Internal Gains Nominal, AF304_OCCUPANCY,AF304OCCUPANTS,AF304,128.70,100.0,100.0,0.777,1.287,0.771,0.229,0.610,ASSUMPTIONACTIVITYSCHEDULE,No,3.8200E-008,0,36
 People Internal Gains Nominal, AF306_OCCUPANCY,AF306OCCUPANTS,AF306,129.20,100.0,100.0,0.774,1.292,0.771,0.229,0.610,ASSUMPTIONACTIVITYSCHEDULE,No,3.8200E-008,0,39
 People Internal Gains Nominal, AF307_OCCUPANCY,AF307OCCUPANTS,AF307,94.78,100.0,100.0,1.055,0.948,0.771,0.229,0.610,ASSUMPTIONACTIVITYSCHEDULE,No,3.8200E-008,0,36
 People Internal Gains Nominal, AF2B06_OCCUPANCY,AF2B06OCCUPANTS,AF2B06,91.39,100.0,100.0,1.094,0.914,0.771,0.229,0.610,ASSUMPTIONACTIVITYSCHEDULE,No,3.8200E-008,0,41
 People Internal Gains Nominal, AF2B07A_OCCUPANCY,AF2B07AOCCUPANTS,AF2B07A,123.30,100.0,100.0,0.811,1.233,0.771,0.229,0.610,ASSUMPTIONACTIVITYSCHEDULE,No,3.8200E-008,0,44
 People Internal Gains Nominal, AF2B07B_OCCUPANCY,AF2B07BOCCUPANTS,AF2B07B,146.86,100.0,100.0,0.681,1.469,0.771,0.229,0.610,ASSUMPTIONACTIVITYSCHEDULE,No,3.8200E-008,0,45
 People Internal Gains Nominal, AF308_OCCUPANCY,AF308OCCUPANTS,AF308,58.60,100.0,100.0,1.706,0.586,0.771,0.229,0.610,ASSUMPTIONACTIVITYSCHEDULE,No,3.8200E-008,0,35
 People Internal Gains Nominal, AF1B12C_OCCUPANCY,AF1B12COCCUPANTS,AF1B12C,137.86,100.0,100.0,0.725,1.379,0.771,0.229,0.610,ASSUMPTIONACTIVITYSCHEDULE,No,3.8200E-008,0,50
 People Internal Gains Nominal, AF110_OCCUPANCY,AF110OCCUPANTS,AF110,52.36,100.0,100.0,1.910,0.524,0.771,0.229,0.610,ACTIVITYSCHEDULESCOMPLAB,No,3.8200E-008,0,39
 People Internal Gains Nominal, AF2B07C_OCCUPANCY,AF2B07COCCUPANTS,AF2B07C,133.29,100.0,100.0,0.750,1.333,0.771,0.229,0.610,ASSUMPTIONACTIVITYSCHEDULE,No,3.8200E-008,0,45
 People Internal Gains Nominal, AF2B07D_OCCUPANCY,AF2B07DOCCUPANTS,AF2B07D,147.08,100.0,100.0,0.680,1.471,0.771,0.229,0.610,ASSUMPTIONACTIVITYSCHEDULE,No,3.8200E-008,0,37
 People Internal Gains Nominal, AF2B07E_OCCUPANCY,AF2B07EOCCUPANTS,AF2B07E,127.07,100.0,100.0,0.787,1.271,0.771,0.229,0.610,ASSUMPTIONACTIVITYSCHEDULE,No,3.8200E-008,0,34
 People Internal Gains Nominal, AF2B07F_OCCUPANCY,AF2B07FOCCUPANTS,AF2B07F,133.73,100.0,100.0,0.748,1.337,0.771,0.229,0.610,ASSUMPTIONACTIVITYSCHEDULE,No,3.8200E-008,0,33
 People Internal Gains Nominal, AF305_OCCUPANCY,AF305OCCUPANTS,AF305,128.50,100.0,100.0,0.778,1.285,0.771,0.229,0.610,ASSUMPTIONACTIVITYSCHEDULE,No,3.8200E-008,0,45
 People Internal Gains Nominal, AFCB4_OCCUPANCY,AFCB4OCCUPANTS,CB4 CLASSROOM,97.13,100.0,100.0,1.030,0.971,0.771,0.229,0.610,ASSUMPTIONACTIVITYSCHEDULE,No,3.8200E-008,0,40
 People Internal Gains Nominal, AFCB3_OCCUPANCY,AFCB3OCCUPANTS,CB3 CLASSROOM,97.13,100.0,100.0,1.030,0.971,0.771,0.229,0.610,ASSUMPTIONACTIVITYSCHEDULE,No,3.8200E-008,0,46
 People Internal Gains Nominal, AFCB2_OCCUPANCY,AF3B02OCCUPANTS,CB2 CLASSROOM,97.13,100.0,100.0,1.030,0.971,0.771,0.229,0.610,ASSUMPTIONACTIVITYSCHEDULE,No,3.8200E-008,0,46
 People Internal Gains Nominal, AFCB1_OCCUPANCY,AF3B01OCCUPANTS,CB1 CLASSROOM,97.13,100.0,100.0,1.030,0.971,0.771,0.229,0.610,ASSUMPTIONACTIVITYSCHEDULE,No,3.8200E-008,0,45
 People Internal Gains Nominal, CONSERVATION LAB OFFICESOCCUPANCYSCHEDULE,SAFADOFFICES_SCHEDULE,CONSERVATION LAB,124.52,10.0,10.0,8.031E-002,12.452,0.771,0.229,0.610,ACTIVITYSCHEDULESOFFICES,No,3.8200E-008,0,10
 People Internal Gains Nominal, ACC OFFICE OFFICESOCCUPANCYSCHEDULE,SAFADOFFICES_SCHEDULE,ACC OFFICE,124.52,10.0,10.0,8.031E-002,12.452,0.771,0.229,0.610,ACTIVITYSCHEDULESOFFICES,No,3.8200E-008,0,10
 People Internal Gains Nominal, SERVICE BUREAU OFFICESOCCUPANCYSCHEDULE,SAFADOFFICES_SCHEDULE,SERVICE BUREAU,105.81,10.0,10.0,9.451E-002,10.581,0.771,0.229,0.610,ACTIVITYSCHEDULESOFFICES,No,3.8200E-008,0,10
 People Internal Gains Nominal, CREATIVE HUB OFFICESOCCUPANCYSCHEDULE,SAFADOFFICES_SCHEDULE,CREATIVE HUB,373.42,10.0,10.0,2.678E-002,37.342,0.771,0.229,0.610,ACTIVITYSCHEDULESOFFICES,No,3.8200E-008,0,10
 People Internal Gains Nominal, FINE ARTS DEPARTMENT OFFICESOCCUPANCYSCHEDULE,SAFADOFFICES_SCHEDULE,FINE ARTS DEPARTMENT,130.86,10.0,10.0,7.642E-002,13.086,0.771,0.229,0.610,ACTIVITYSCHEDULESOFFICES,No,3.8200E-008,0,10
 People Internal Gains Nominal, FACULTY ROOM_FINE ARTS OFFICESOCCUPANCYSCHEDULE,SAFADOFFICES_SCHEDULE,FACULTY ROOM_FINE ARTS,121.24,10.0,10.0,8.248E-002,12.124,0.771,0.229,0.610,ACTIVITYSCHEDULESOFFICES,No,3.8200E-008,0,10
 People Internal Gains Nominal, DEAN OFFICE OFFICESOCCUPANCYSCHEDULE,SAFADOFFICES_SCHEDULE,DEAN OFFICE,42.96,10.0,10.0,0.233,4.296,0.771,0.229,0.610,ACTIVITYSCHEDULESOFFICES,No,3.8200E-008,0,10
 People Internal Gains Nominal, SAFAD CONFERENCE ROOM OFFICESOCCUPANCYSCHEDULE,SAFADOFFICES_SCHEDULE,SAFAD CONFERENCE ROOM,43.67,10.0,10.0,0.229,4.367,0.771,0.229,0.610,ACTIVITYSCHEDULESOFFICES,No,3.8200E-008,0,10
 People Internal Gains Nominal, DEAN SECRETARY OFFICE OFFICESOCCUPANCYSCHEDULE,SAFADOFFICES_SCHEDULE,DEAN SECRETARY OFFICE,41.86,10.0,10.0,0.239,4.186,0.771,0.229,0.610,ACTIVITYSCHEDULESOFFICES,No,3.8200E-008,0,10
 People Internal Gains Nominal, ARCHITECTURE DEPARTMENT OFFICESOCCUPANCYSCHEDULE,SAFADOFFICES_SCHEDULE,ARCHITECTURE DEPARTMENT,79.91,10.0,10.0,0.125,7.991,0.771,0.229,0.610,ACTIVITYSCHEDULESOFFICES,No,3.8200E-008,0,10
 People Internal Gains Nominal, FACULTY ROOM_ARCHITECTURE OFFICESOCCUPANCYSCHEDULE,SAFADOFFICES_SCHEDULE,FACULTY ROOM_ARCHITECTURE,202.67,10.0,10.0,4.934E-002,20.267,0.771,0.229,0.610,ACTIVITYSCHEDULESOFFICES,No,3.8200E-008,0,10
 People Internal Gains Nominal, AUXILLIARY OFFICES OFFICESOCCUPANCYSCHEDULE,SAFADOFFICES_SCHEDULE,AUXILLIARY OFFICES,128.70,10.0,10.0,7.770E-002,12.870,0.771,0.229,0.610,ACTIVITYSCHEDULESOFFICES,No,3.8200E-008,0,10
 People Internal Gains Nominal, VPPF OFFICESOCCUPANCYSCHEDULE,SAFADOFFICES_SCHEDULE,VPPF,104.96,10.0,10.0,9.527E-002,10.496,0.771,0.229,0.610,ACTIVITYSCHEDULESOFFICES,No,3.8200E-008,0,10
 People Internal Gains Nominal, IPD OFFICESOCCUPANCYSCHEDULE,SAFADOFFICES_SCHEDULE,IPD,104.53,10.0,10.0,9.567E-002,10.453,0.771,0.229,0.610,ACTIVITYSCHEDULESOFFICES,No,3.8200E-008,0,10
 People Internal Gains Nominal, GUIDANCE OFFICE OFFICESOCCUPANCYSCHEDULE,SAFADOFFICES_SCHEDULE,GUIDANCE OFFICE,44.30,10.0,10.0,0.226,4.430,0.771,0.229,0.610,ACTIVITYSCHEDULESOFFICES,No,3.8200E-008,0,10
 People Internal Gains Nominal, CLINIC OFFICESOCCUPANCYSCHEDULE,SAFADOFFICES_SCHEDULE,CLINIC,9.61,10.0,10.0,1.041,0.961,0.771,0.229,0.610,ACTIVITYSCHEDULESOFFICES,No,3.8200E-008,0,10
 People Internal Gains Nominal, GUIDANCE CONFERENCE OFFICESOCCUPANCYSCHEDULE,SAFADOFFICES_SCHEDULE,GUIDANCE CONFERENCE,18.03,10.0,10.0,0.555,1.803,0.771,0.229,0.610,ACTIVITYSCHEDULESOFFICES,No,3.8200E-008,0,10
 People Internal Gains Nominal, GUIDANCE CONSELOR OFFICESOCCUPANCYSCHEDULE,SAFADOFFICES_SCHEDULE,GUIDANCE CONSELOR,32.60,10.0,10.0,0.307,3.260,0.771,0.229,0.610,ACTIVITYSCHEDULESOFFICES,No,3.8200E-008,0,10
! <Lights Internal Gains Nominal>,Name,Schedule Name,Zone Name,Zone Floor Area {m2},# Zone Occupants,Lighting Level {W},Lights/Floor Area {W/m2},Lights per person {W/person},Fraction Return Air,Fraction Radiant,Fraction Short Wave,Fraction Convected,Fraction Replaceable,End-Use Category,Nominal Minimum Lighting Level {W},Nominal Maximum Lighting Level {W}
 Lights Internal Gains Nominal, AF101_LIGHTING,AF101ACUSCHEDULE,AF101,63.08,100.0,216.000,3.424,2.160,0.000,0.270,0.230,0.500,1.000,General,0.000,216.000
 Lights Internal Gains Nominal, AF102_LIGHTING,AF102ACUSCHEDULE,AF102,65.62,100.0,216.000,3.292,2.160,0.000,0.270,0.230,0.500,1.000,General,0.000,216.000
 Lights Internal Gains Nominal, AF103_LIGHTING,AF103ACUSCHEDULE,AF103,49.67,100.0,216.000,4.349,2.160,0.000,0.270,0.230,0.500,1.000,General,0.000,216.000
 Lights Internal Gains Nominal, AF104_LIGHTING,AF104ACUSCHEDULE,AF104,47.76,100.0,216.000,4.522,2.160,0.000,0.270,0.230,0.500,1.000,General,0.000,216.000
 Lights Internal Gains Nominal, AF109A_LIGHTING,AF109AACUSCHEDULE,AF109A,50.37,100.0,216.000,4.289,2.160,0.000,0.270,0.230,0.500,1.000,General,0.000,216.000
 Lights Internal Gains Nominal, AF109B_LIGHTING,AF109BACUSCHEDULE,AF109B,53.28,100.0,288.000,5.405,2.880,0.000,0.270,0.230,0.500,1.000,General,0.000,288.000
 Lights Internal Gains Nominal, AF110_LIGHTING,AF110ACUSCHEDULE,AF110,52.36,100.0,108.000,2.063,1.080,0.000,0.270,0.230,0.500,1.000,General,0.000,108.000
 Lights Internal Gains Nominal, AF111_LIGHTING,AF111ACUSCHEDULE,AF111,56.85,100.0,108.000,1.900,1.080,0.000,0.270,0.230,0.500,1.000,General,0.000,108.000
 Lights Internal Gains Nominal, AF207_LIGHTING_T5,AF207ACUSCHEDULE,AF207,64.83,100.0,216.000,3.332,2.160,0.000,0.270,0.230,0.500,1.000,General,0.000,216.000
 Lights Internal Gains Nominal, AF207_LIGHTING_CFLPINLIGHT,AF207ACUSCHEDULE,AF207,64.83,100.0,27.000,0.416,0.270,0.000,0.270,0.230,0.500,1.000,General,0.000,27.000
 Lights Internal Gains Nominal, AF208_LIGHTING_T5,AF208ACUSCHEDULE,AF208,67.53,100.0,216.000,3.198,2.160,0.000,0.270,0.230,0.500,1.000,General,0.000,216.000
 Lights Internal Gains Nominal, AF208_LIGHTING_CFLPINLIGHT,AF208ACUSCHEDULE,AF208,67.53,100.0,27.000,0.400,0.270,0.000,0.270,0.230,0.500,1.000,General,0.000,27.000
 Lights Internal Gains Nominal, AF209_LIGHTING_T5,AF209ACUSCHEDULE,AF209,65.25,100.0,216.000,3.311,2.160,0.000,0.270,0.230,0.500,1.000,General,0.000,216.000
 Lights Internal Gains Nominal, AF209_LIGHTING_CFLPINLIGHT,AF209ACUSCHEDULE,AF209,65.25,100.0,27.000,0.414,0.270,0.000,0.270,0.230,0.500,1.000,General,0.000,27.000
 Lights Internal Gains Nominal, AF210_LIGHTING_T5,AF210ACUSCHEDULE,AF210,87.90,100.0,288.000,3.276,2.880,0.000,0.270,0.230,0.500,1.000,General,0.000,288.000
 Lights Internal Gains Nominal, AF210_LIGHTING_CFLPINLIGHT,AF210ACUSCHEDULE,AF210,87.90,100.0,27.000,0.307,0.270,0.000,0.270,0.230,0.500,1.000,General,0.000,27.000
 Lights Internal Gains Nominal, AF211_LIGHTING_T5,AF211ACUSCHEDULE,AF211,87.90,100.0,288.000,3.276,2.880,0.000,0.270,0.230,0.500,1.000,General,0.000,288.000
 Lights Internal Gains Nominal, AF211_LIGHTING_CFLPINLIGHT,AF211ACUSCHEDULE,AF211,87.90,100.0,27.000,0.307,0.270,0.000,0.270,0.230,0.500,1.000,General,0.000,27.000
 Lights Internal Gains Nominal, AF212_LIGHTING_T5,AF212ACUSCHEDULE,AF212,108.80,100.0,648.000,5.956,6.480,0.000,0.270,0.230,0.500,1.000,General,0.000,648.000
 Lights Internal Gains Nominal, AF212_LIGHTING_CFLPINLIGHT,AF212ACUSCHEDULE,AF212,108.80,100.0,15.000,0.138,0.150,0.000,0.270,0.230,0.500,1.000,General,0.000,15.000
 Lights Internal Gains Nominal, AF213_LIGHTING_T5,AF213ACUSCHEDULE,AF213,123.50,100.0,648.000,5.247,6.480,0.000,0.270,0.230,0.500,1.000,General,0.000,648.000
 Lights Internal Gains Nominal, AF213_LIGHTING_CFLPINLIGHT,AF213ACUSCHEDULE,AF213,123.50,100.0,15.000,0.121,0.150,0.000,0.270,0.230,0.500,1.000,General,0.000,15.000
 Lights Internal Gains Nominal, AF214_LIGHTING_T5,AF214ACUSCHEDULE,AF214,121.49,100.0,790.000,6.503,7.900,0.000,0.270,0.230,0.500,1.000,General,0.000,790.000
 Lights Internal Gains Nominal, AF214_LIGHTING_CFLPINLIGHT,AF214ACUSCHEDULE,AF214,121.49,100.0,18.000,0.148,0.180,0.000,0.270,0.230,0.500,1.000,General,0.000,18.000
 Lights Internal Gains Nominal, AF215_LIGHTING_T5,AF215ACUSCHEDULE,AF215,124.52,100.0,790.000,6.345,7.900,0.000,0.270,0.230,0.500,1.000,General,0.000,790.000
 Lights Internal Gains Nominal, AF215_LIGHTING_CFLPINLIGHT,AF215ACUSCHEDULE,AF215,124.52,100.0,18.000,0.145,0.180,0.000,0.270,0.230,0.500,1.000,General,0.000,18.000
 Lights Internal Gains Nominal, AF304_LIGHTING_T5,AF304ACUSCHEDULE,AF304,128.70,100.0,864.000,6.713,8.640,0.000,0.270,0.230,0.500,1.000,General,0.000,864.000
 Lights Internal Gains Nominal, AF304_LIGHTING_CFLPINLIGHT,AF304ACUSCHEDULE,AF304,128.70,100.0,27.000,0.210,0.270,0.000,0.270,0.230,0.500,1.000,General,0.000,27.000
 Lights Internal Gains Nominal, AF305_LIGHTING_T5,AF305ACUSCHEDULE,AF305,128.50,100.0,624.000,4.856,6.240,0.000,0.270,0.230,0.500,1.000,General,0.000,624.000
 Lights Internal Gains Nominal, AF305_LIGHTING_CFLPINLIGHT,AF305ACUSCHEDULE,AF305,128.50,100.0,27.000,0.210,0.270,0.000,0.270,0.230,0.500,1.000,General,0.000,27.000
 Lights Internal Gains Nominal, AF306_LIGHTING_T5,AF306ACUSCHEDULE,AF306,129.20,100.0,768.000,5.944,7.680,0.000,0.270,0.230,0.500,1.000,General,0.000,768.000
 Lights Internal Gains Nominal, AF306_LIGHTING_CFLPINLIGHT,AF306ACUSCHEDULE,AF306,129.20,100.0,27.000,0.209,0.270,0.000,0.270,0.230,0.500,1.000,General,0.000,27.000
 Lights Internal Gains Nominal, AF307_LIGHTING_T5,AF307ACUSCHEDULE,AF307,94.78,100.0,624.000,6.584,6.240,0.000,0.270,0.230,0.500,1.000,General,0.000,624.000
 Lights Internal Gains Nominal, AF307_LIGHTING_CFLPINLIGHT,AF307ACUSCHEDULE,AF307,94.78,100.0,27.000,0.285,0.270,0.000,0.270,0.230,0.500,1.000,General,0.000,27.000
 Lights Internal Gains Nominal, AF308_LIGHTING_T5,AF308ACUSCHEDULE,AF308,58.60,100.0,624.000,10.648,6.240,0.000,0.270,0.230,0.500,1.000,General,0.000,624.000
 Lights Internal Gains Nominal, AF308_LIGHTING_CFLPINLIGHT,AF308ACUSCHEDULE,AF308,58.60,100.0,27.000,0.461,0.270,0.000,0.270,0.230,0.500,1.000,General,0.000,27.000
 Lights Internal Gains Nominal, AF1B12A_LIGHTING_T5,AF1B12AACUSCHEDULE,AF1B12A,185.03,100.0,648.000,3.502,6.480,0.000,0.270,0.230,0.500,1.000,General,0.000,648.000
 Lights Internal Gains Nominal, AF1B12B_LIGHTING_T5,AF1B12BACUSCHEDULE,AF1B12B,182.44,100.0,648.000,3.552,6.480,0.000,0.270,0.230,0.500,1.000,General,0.000,648.000
 Lights Internal Gains Nominal, AF1B12C_LIGHTING_T5,AF1B12CACUSCHEDULE,AF1B12C,137.86,100.0,648.000,4.700,6.480,0.000,0.270,0.230,0.500,1.000,General,0.000,648.000
 Lights Internal Gains Nominal, AF1B12D_LIGHTING_T5,AF1B12DACUSCHEDULE,AF1B12D,133.09,100.0,648.000,4.869,6.480,0.000,0.270,0.230,0.500,1.000,General,0.000,648.000
 Lights Internal Gains Nominal, AF1B12E_LIGHTING_T5,AF1B12EACUSCHEDULE,AF1B12E,136.54,100.0,648.000,4.746,6.480,0.000,0.270,0.230,0.500,1.000,General,0.000,648.000
 Lights Internal Gains Nominal, AF1B12F_LIGHTING_T5,AF1B12FACUSCHEDULE,AF1B12F,137.62,100.0,648.000,4.709,6.480,0.000,0.270,0.230,0.500,1.000,General,0.000,648.000
 Lights Internal Gains Nominal, AF1B10A-AF1B10B_1_LIGHTING_T5,AF1B10AACUSCHEDULE,AF1B10A-AF1B10B_1,50.37,0.0,468.000,9.292,N/A,0.000,0.270,0.230,0.500,1.000,General,0.000,468.000
 Lights Internal Gains Nominal, AF1B10A-AF1B10B_2_LIGHTING_T5,AF1B10AACUSCHEDULE,AF1B10A-AF1B10B_2,61.07,0.0,468.000,7.663,N/A,0.000,0.270,0.230,0.500,1.000,General,0.000,468.000
 Lights Internal Gains Nominal, AF1B10A-AF1B10B_3_LIGHTING_T5,AF1B10AACUSCHEDULE,AF1B10A-AF1B10B_3,62.15,0.0,468.000,7.530,N/A,0.000,0.270,0.230,0.500,1.000,General,0.000,468.000
 Lights Internal Gains Nominal, AF1B10A-AF1B10B_4_LIGHTING_T5,AF1B10BACUSCHEDULE,AF1B10A-AF1B10B_4,63.60,0.0,468.000,7.359,N/A,0.000,0.270,0.230,0.500,1.000,General,0.000,468.000
 Lights Internal Gains Nominal, AF1B10A-AF1B10B_5_LIGHTING_T5,AF1B10BACUSCHEDULE,AF1B10A-AF1B10B_5,62.48,0.0,504.000,8.067,N/A,0.000,0.270,0.230,0.500,1.000,General,0.000,504.000
 Lights Internal Gains Nominal, AF1B03_LIGHTING_T5,AF1B03ACUSCHEDULE,AF1B03,62.83,0.0,288.000,4.584,N/A,0.000,0.270,0.230,0.500,1.000,General,0.000,288.000
 Lights Internal Gains Nominal, AF1B04_LIGHTING_T5,AF1B04ACUSCHEDULE,AF1B04,67.32,0.0,288.000,4.278,N/A,0.000,0.270,0.230,0.500,1.000,General,0.000,288.000
 Lights Internal Gains Nominal, AF2B06_LIGHTING_T5,AF2B06ACUSCHEDULE,AF2B06,91.39,100.0,432.000,4.727,4.320,0.000,0.270,0.230,0.500,1.000,General,0.000,432.000
 Lights Internal Gains Nominal, AF2B07A_LIGHTING_T5,AF2B07AACUSCHEDULE,AF2B07A,123.30,100.0,648.000,5.255,6.480,0.000,0.270,0.230,0.500,1.000,General,0.000,648.000
 Lights Internal Gains Nominal, AF2B07B_LIGHTING_T5,AF2B07BACUSCHEDULE,AF2B07B,146.86,100.0,648.000,4.412,6.480,0.000,0.270,0.230,0.500,1.000,General,0.000,648.000
 Lights Internal Gains Nominal, AFCB1_LIGHTING_T5,AFCB1ACUSCHEDULE,CB1 CLASSROOM,97.13,100.0,648.000,6.672,6.480,0.000,0.270,0.230,0.500,1.000,General,0.000,648.000
 Lights Internal Gains Nominal, AFCB2_LIGHTING_T5,AFCB2ACUSCHEDULE,CB2 CLASSROOM,97.13,100.0,648.000,6.672,6.480,0.000,0.270,0.230,0.500,1.000,General,0.000,648.000
 Lights Internal Gains Nominal, AFCB3_LIGHTING_T5,AFCB3ACUSCHEDULE,CB3 CLASSROOM,97.13,100.0,648.000,6.672,6.480,0.000,0.270,0.230,0.500,1.000,General,0.000,648.000
 Lights Internal Gains Nominal, AFCB4_LIGHTING_T5,AFCB4ACUSCHEDULE,CB4 CLASSROOM,97.13,100.0,648.000,6.672,6.480,0.000,0.270,0.230,0.500,1.000,General,0.000,648.000
 Lights Internal Gains Nominal, AF2B07C_LIGHTING_T5,AF2B07CACUSCHEDULE,AF2B07C,133.29,100.0,648.000,4.861,6.480,0.000,0.270,0.230,0.500,1.000,General,0.000,648.000
 Lights Internal Gains Nominal, AF2B07D_LIGHTING_T5,AF2B07DACUSCHEDULE,AF2B07D,147.08,100.0,648.000,4.406,6.480,0.000,0.270,0.230,0.500,1.000,General,0.000,648.000
 Lights Internal Gains Nominal, AF2B07E_LIGHTING_T5,AF2B07EACUSCHEDULE,AF2B07E,127.07,100.0,648.000,5.099,6.480,0.000,0.270,0.230,0.500,1.000,General,0.000,648.000
 Lights Internal Gains Nominal, AF2B07F_LIGHTING_T5,AF2B07FACUSCHEDULE,AF2B07F,133.73,100.0,648.000,4.846,6.480,0.000,0.270,0.230,0.500,1.000,General,0.000,648.000
 Lights Internal Gains Nominal, GUIDANCE CONFERENCE_LIGHTING_T5,SAFADOFFICES_SCHEDULE,GUIDANCE CONFERENCE,18.03,10.0,144.000,7.987,14.400,0.000,0.270,0.230,0.500,1.000,General,0.000,144.000
 Lights Internal Gains Nominal, CLINIC_LIGHTING_T5,SAFADOFFICES_SCHEDULE,CLINIC,9.61,10.0,36.000,3.747,3.600,0.000,0.270,0.230,0.500,1.000,General,0.000,36.000
 Lights Internal Gains Nominal, GUIDANCE COUNSELOR_LIGHTING_T5,SAFADOFFICES_SCHEDULE,GUIDANCE CONSELOR,32.60,10.0,36.000,1.104,3.600,0.000,0.270,0.230,0.500,1.000,General,0.000,36.000
 Lights Internal Gains Nominal, GUIDANCE CR_LIGHTING_T5,SAFADOFFICES_SCHEDULE,GUIDANCE CONSELOR,32.60,10.0,36.000,1.104,3.600,0.000,0.270,0.230,0.500,1.000,General,0.000,36.000
 Lights Internal Gains Nominal, GUIDANCE OFFICE_LIGHTING_T5,SAFADOFFICES_SCHEDULE,GUIDANCE OFFICE,44.30,10.0,36.000,0.813,3.600,0.000,0.270,0.230,0.500,1.000,General,0.000,36.000
 Lights Internal Gains Nominal, CREATIVE HUB_LIGHTING_T5,SAFADOFFICES_SCHEDULE,CREATIVE HUB,373.42,10.0,1440.000,3.856,144.000,0.000,0.270,0.230,0.500,1.000,General,0.000,1440.000
 Lights Internal Gains Nominal, CREATIVE HUB OFFICE_LIGHTING_T5,SAFADOFFICES_SCHEDULE,CREATIVE HUB,373.42,10.0,72.000,0.193,7.200,0.000,0.270,0.230,0.500,1.000,General,0.000,72.000
 Lights Internal Gains Nominal, CREATIVE HUB DISCUSSION ROOM_LIGHTING_T5,SAFADOFFICES_SCHEDULE,CREATIVE HUB,373.42,10.0,144.000,0.386,14.400,0.000,0.270,0.230,0.500,1.000,General,0.000,144.000
 Lights Internal Gains Nominal, ACC SERVICE BUREAU_LIGHTING_T5,SAFADOFFICES_SCHEDULE,SERVICE BUREAU,105.81,10.0,720.000,6.805,72.000,0.000,0.270,0.230,0.500,1.000,General,0.000,720.000
 Lights Internal Gains Nominal, ACC_LIGHTING_T5,SAFADOFFICES_SCHEDULE,ACC OFFICE,124.52,10.0,504.000,4.048,50.400,0.000,0.270,0.230,0.500,1.000,General,0.000,504.000
 Lights Internal Gains Nominal, FINE ARTS DEPT_LIGHTING_T5,SAFADOFFICES_SCHEDULE,FINE ARTS DEPARTMENT,130.86,10.0,216.000,1.651,21.600,0.000,0.270,0.230,0.500,1.000,General,0.000,216.000
 Lights Internal Gains Nominal, FINE ARTS FACULTY_LIGHTING_T5,SAFADOFFICES_SCHEDULE,FACULTY ROOM_FINE ARTS,121.24,10.0,684.000,5.642,68.400,0.000,0.270,0.230,0.500,1.000,General,0.000,684.000
 Lights Internal Gains Nominal, ARCHITECTURE FACULTY_LIGHTING_T5,SAFADOFFICES_SCHEDULE,FACULTY ROOM_ARCHITECTURE,202.67,10.0,720.000,3.553,72.000,0.000,0.270,0.230,0.500,1.000,General,0.000,720.000
 Lights Internal Gains Nominal, ARCHITECTURE FACULTY_LIGHTING_CFLPINLIGHT,SAFADOFFICES_SCHEDULE,FACULTY ROOM_ARCHITECTURE,202.67,10.0,18.000,8.881E-002,1.800,0.000,0.270,0.230,0.500,1.000,General,0.000,18.000
 Lights Internal Gains Nominal, GUIDANCE CR_LIGHTING_CFLPINLIGHT,SAFADOFFICES_SCHEDULE,GUIDANCE CONSELOR,32.60,10.0,9.000,0.276,0.900,0.000,0.270,0.230,0.500,1.000,General,0.000,9.000
 Lights Internal Gains Nominal, ARCHITECTURE DEPT_LIGHTING_T5,SAFADOFFICES_SCHEDULE,ARCHITECTURE DEPARTMENT,79.91,10.0,288.000,3.604,28.800,0.000,0.270,0.230,0.500,1.000,General,0.000,288.000
 Lights Internal Gains Nominal, ARCHITECTURE DEPT_LIGHTING_CFLPINLIGHT,SAFADOFFICES_SCHEDULE,ARCHITECTURE DEPARTMENT,79.91,10.0,45.000,0.563,4.500,0.000,0.270,0.230,0.500,1.000,General,0.000,45.000
 Lights Internal Gains Nominal, DEAN SECRETARY_LIGHTING_T5,SAFADOFFICES_SCHEDULE,DEAN SECRETARY OFFICE,41.86,10.0,144.000,3.440,14.400,0.000,0.270,0.230,0.500,1.000,General,0.000,144.000
 Lights Internal Gains Nominal, DEAN SECRETARY_LIGHTING_CFLPINLIGHT,SAFADOFFICES_SCHEDULE,DEAN SECRETARY OFFICE,41.86,10.0,36.000,0.860,3.600,0.000,0.270,0.230,0.500,1.000,General,0.000,36.000
 Lights Internal Gains Nominal, SAFAD CONFERENCE ROOM_LIGHTING_T5,SAFADOFFICES_SCHEDULE,SAFAD CONFERENCE ROOM,43.67,10.0,72.000,1.649,7.200,0.000,0.270,0.230,0.500,1.000,General,0.000,72.000
 Lights Internal Gains Nominal, SAFAD CONFERENCE_LIGHTING_CFLPINLIGHT,SAFADOFFICES_SCHEDULE,SAFAD CONFERENCE ROOM,43.67,10.0,54.000,1.237,5.400,0.000,0.270,0.230,0.500,1.000,General,0.000,54.000
 Lights Internal Gains Nominal, DEAN OFFICE_LIGHTING_T5,SAFADOFFICES_SCHEDULE,DEAN OFFICE,42.96,10.0,72.000,1.676,7.200,0.000,0.270,0.230,0.500,1.000,General,0.000,72.000
 Lights Internal Gains Nominal, DEAN OFFICE_LIGHTING_CFLPINLIGHT,SAFADOFFICES_SCHEDULE,DEAN OFFICE,42.96,10.0,54.000,1.257,5.400,0.000,0.270,0.230,0.500,1.000,General,0.000,54.000
 Lights Internal Gains Nominal, AUXILLIARY OFFICES_LIGHTING_T5,SAFADOFFICES_SCHEDULE,AUXILLIARY OFFICES,128.70,10.0,576.000,4.476,57.600,0.000,0.270,0.230,0.500,1.000,General,0.000,576.000
 Lights Internal Gains Nominal, AUXILLIARY OFFICES_LIGHTING_CFLPINLIGHT,SAFADOFFICES_SCHEDULE,AUXILLIARY OFFICES,128.70,10.0,27.000,0.210,2.700,0.000,0.270,0.230,0.500,1.000,General,0.000,27.000
 Lights Internal Gains Nominal, IPD_LIGHTING_T5,SAFADOFFICES_SCHEDULE,IPD,104.53,10.0,792.000,7.577,79.200,0.000,0.270,0.230,0.500,1.000,General,0.000,792.000
 Lights Internal Gains Nominal, IPD_LIGHTING_120W,SAFADOFFICES_SCHEDULE,IPD,104.53,10.0,360.000,3.444,36.000,0.000,0.270,0.230,0.500,1.000,General,0.000,360.000
 Lights Internal Gains Nominal, VPPF_LIGHTING_T5,SAFADOFFICES_SCHEDULE,VPPF,104.96,10.0,216.000,2.058,21.600,0.000,0.270,0.230,0.500,1.000,General,0.000,216.000
 Lights Internal Gains Nominal, PUMP ROOM_LIGHTING_T5,SAFADOFFICES_SCHEDULE,PUMP ROOM,27.38,0.0,36.000,1.315,N/A,0.000,0.270,0.230,0.500,1.000,General,0.000,36.000
 Lights Internal Gains Nominal, ELECTRICAL ROOM/BARRACKS_LIGHTING_T5,SAFADOFFICES_SCHEDULE,GENERATOR AND EE ROOM,125.79,0.0,108.000,0.859,N/A,0.000,0.270,0.230,0.500,1.000,General,0.000,108.000
 Lights Internal Gains Nominal, IPD CR_LIGHTING_T5,SAFADOFFICES_SCHEDULE,IPD_CR,42.61,0.0,72.000,1.690,N/A,0.000,0.270,0.230,0.500,1.000,General,0.000,72.000
 Lights Internal Gains Nominal, SECOND FLOOR CR_LIGHTING_T5,SAFADOFFICES_SCHEDULE,SECOND FLOOR CR,60.39,0.0,144.000,2.385,N/A,0.000,0.270,0.230,0.500,1.000,General,0.000,144.000
 Lights Internal Gains Nominal, SECOND FLOOR CR_LIGHTING_CFLPINLIGHT,SAFADOFFICES_SCHEDULE,AUXILLIARY OFFICES,128.70,10.0,18.000,0.140,1.800,0.000,0.270,0.230,0.500,1.000,General,0.000,18.000
 Lights Internal Gains Nominal, FIRST FLOOR CR_LIGHTING_T5,SAFADOFFICES_SCHEDULE,FIRST FLOOR CR,60.39,0.0,144.000,2.385,N/A,0.000,0.270,0.230,0.500,1.000,General,0.000,144.000
 Lights Internal Gains Nominal, BASEMENT 3 CR_LIGHTING_T5,SAFADOFFICES_SCHEDULE,BASEMENT 3 CR,60.39,0.0,144.000,2.385,N/A,0.000,0.270,0.230,0.500,1.000,General,0.000,144.000
! <ElectricEquipment Internal Gains Nominal>,Name,Schedule Name,Zone Name,Zone Floor Area {m2},# Zone Occupants,Equipment Level {W},Equipment/Floor Area {W/m2},Equipment per person {W/person},Fraction Latent,Fraction Radiant,Fraction Lost,Fraction Convected,End-Use SubCategory,Nominal Minimum Equipment Level {W},Nominal Maximum Equipment Level {W}
 ElectricEquipment Internal Gains Nominal, AF101_PLUGGEDLOADS_FAN,AF101LIGHTEQUIPMENTSCHEDULE,AF101,63.08,100.0,120.000,1.902,1.200,0.000,0.213,0.000,0.787,General,0.000,120.000
 ElectricEquipment Internal Gains Nominal, AF101_PLUGGEDLOADS_PROJECTORPANASONIC,AF101ACUSCHEDULE,AF101,63.08,100.0,300.000,4.756,3.000,0.000,0.213,0.000,0.787,General,0.000,300.000
 ElectricEquipment Internal Gains Nominal, AF102_PLUGGEDLOADS_FAN,AF102LIGHTEQUIPMENTSCHEDULE,AF102,65.62,100.0,120.000,1.829,1.200,0.000,0.213,0.000,0.787,General,0.000,120.000
 ElectricEquipment Internal Gains Nominal, AF102_PLUGGEDLOADS_PROJECTORPANASONIC,AF102ACUSCHEDULE,AF102,65.62,100.0,300.000,4.572,3.000,0.000,0.213,0.000,0.787,General,0.000,300.000
 ElectricEquipment Internal Gains Nominal, AF103_PLUGGEDLOADS_FAN,AF103LIGHTEQUIPMENTSCHEDULE,AF103,49.67,100.0,120.000,2.416,1.200,0.000,0.213,0.000,0.787,General,0.000,120.000
 ElectricEquipment Internal Gains Nominal, AF103_PLUGGEDLOADS_PROJECTORPANASONIC,AF103ACUSCHEDULE,AF103,49.67,100.0,300.000,6.040,3.000,0.000,0.213,0.000,0.787,General,0.000,300.000
 ElectricEquipment Internal Gains Nominal, AF104_PLUGGEDLOADS_FAN,AF104LIGHTEQUIPMENTSCHEDULE,AF104,47.76,100.0,120.000,2.512,1.200,0.000,0.213,0.000,0.787,General,0.000,120.000
 ElectricEquipment Internal Gains Nominal, AF104_PLUGGEDLOADS_PROJECTORPANASONIC,AF104ACUSCHEDULE,AF104,47.76,100.0,300.000,6.281,3.000,0.000,0.213,0.000,0.787,General,0.000,300.000
 ElectricEquipment Internal Gains Nominal, AF109A_PLUGGEDLOADS_FAN,AF109ALIGHTEQUIPMENTSCHEDULE,AF109A,50.37,100.0,120.000,2.383,1.200,0.000,0.213,0.000,0.787,General,0.000,120.000
 ElectricEquipment Internal Gains Nominal, AF109A_PLUGGEDLOADS_COMPUTER,AF109AACUSCHEDULE,AF109A,50.37,100.0,6200.000,123.098,62.000,0.000,0.213,0.000,0.787,General,0.000,6200.000
 ElectricEquipment Internal Gains Nominal, AF109B_PLUGGEDLOADS_COMPUTER,AF109BACUSCHEDULE,AF109B,53.28,100.0,6200.000,116.356,62.000,0.000,0.213,0.000,0.787,General,0.000,6200.000
 ElectricEquipment Internal Gains Nominal, AF110_PLUGGEDLOADS_COMPUTER,AF110ACUSCHEDULE,AF110,52.36,100.0,3100.000,59.211,31.000,0.000,0.213,0.000,0.787,General,0.000,3100.000
 ElectricEquipment Internal Gains Nominal, AF110_PLUGGEDLOADS_PROJECTORPANASONIC,AF110ACUSCHEDULE,AF110,52.36,100.0,300.000,5.730,3.000,0.000,0.213,0.000,0.787,General,0.000,300.000
 ElectricEquipment Internal Gains Nominal, AF111_PLUGGEDLOADS_COMPUTER,AF111ACUSCHEDULE,AF111,56.85,100.0,3100.000,54.529,31.000,0.000,0.213,0.000,0.787,General,0.000,3100.000
 ElectricEquipment Internal Gains Nominal, AF111_PLUGGEDLOADS_PROJECTORPANASONIC,AF111ACUSCHEDULE,AF111,56.85,100.0,300.000,5.277,3.000,0.000,0.213,0.000,0.787,General,0.000,300.000
 ElectricEquipment Internal Gains Nominal, AF207_PLUGGEDLOADS_PROJECTORPANASONIC,AF207ACUSCHEDULE,AF207,64.83,100.0,300.000,4.628,3.000,0.000,0.213,0.000,0.787,General,0.000,300.000
 ElectricEquipment Internal Gains Nominal, AF208_PLUGGEDLOADS_PROJECTORPANASONIC,AF208ACUSCHEDULE,AF208,67.53,100.0,300.000,4.442,3.000,0.000,0.213,0.000,0.787,General,0.000,300.000
 ElectricEquipment Internal Gains Nominal, AF209_PLUGGEDLOADS_PROJECTORPANASONIC,AF209ACUSCHEDULE,AF209,65.25,100.0,300.000,4.598,3.000,0.000,0.213,0.000,0.787,General,0.000,300.000
 ElectricEquipment Internal Gains Nominal, AF210_PLUGGEDLOADS_PROJECTOREPSON,AF210ACUSCHEDULE,AF210,87.90,100.0,277.000,3.151,2.770,0.000,0.213,0.000,0.787,General,0.000,277.000
 ElectricEquipment Internal Gains Nominal, AF211_PLUGGEDLOADS_PROJECTOREPSON,AF211ACUSCHEDULE,AF211,87.90,100.0,277.000,3.151,2.770,0.000,0.213,0.000,0.787,General,0.000,277.000
 ElectricEquipment Internal Gains Nominal, AF212_PLUGGEDLOADS_PROJECTORPANASONIC,AF212ACUSCHEDULE,AF212,108.80,100.0,300.000,2.757,3.000,0.000,0.213,0.000,0.787,General,0.000,300.000
 ElectricEquipment Internal Gains Nominal, AF213_PLUGGEDLOADS_PROJECTORPANASONIC,AF213ACUSCHEDULE,AF213,123.50,100.0,300.000,2.429,3.000,0.000,0.213,0.000,0.787,General,0.000,300.000
 ElectricEquipment Internal Gains Nominal, AF214_PLUGGEDLOADS_PROJECTORSANYO,AF214ACUSCHEDULE,AF214,121.49,100.0,210.000,1.729,2.100,0.000,0.213,0.000,0.787,General,0.000,210.000
 ElectricEquipment Internal Gains Nominal, AF215_PLUGGEDLOADS_PROJECTORSANYO,AF215ACUSCHEDULE,AF215,124.52,100.0,210.000,1.687,2.100,0.000,0.213,0.000,0.787,General,0.000,210.000
 ElectricEquipment Internal Gains Nominal, AF304_PLUGGEDLOADS_PROJECTORPANASONIC,AF304ACUSCHEDULE,AF304,128.70,100.0,300.000,2.331,3.000,0.000,0.213,0.000,0.787,General,0.000,300.000
 ElectricEquipment Internal Gains Nominal, AF304_PLUGGEDLOADS_FAN,AF304LIGHTEQUIPMENTSCHEDULE,AF304,128.70,100.0,240.000,1.865,2.400,0.000,0.213,0.000,0.787,General,0.000,240.000
 ElectricEquipment Internal Gains Nominal, AF305_PLUGGEDLOADS_FAN,AF305LIGHTEQUIPMENTSCHEDULE,AF305,128.50,100.0,180.000,1.401,1.800,0.000,0.213,0.000,0.787,General,0.000,180.000
 ElectricEquipment Internal Gains Nominal, AF306_PLUGGEDLOADS_PROJECTOREPSON,AF306ACUSCHEDULE,AF306,129.20,100.0,277.000,2.144,2.770,0.000,0.213,0.000,0.787,General,0.000,277.000
 ElectricEquipment Internal Gains Nominal, AF306_PLUGGEDLOADS_FAN,AF306LIGHTEQUIPMENTSCHEDULE,AF306,129.20,100.0,240.000,1.858,2.400,0.000,0.213,0.000,0.787,General,0.000,240.000
 ElectricEquipment Internal Gains Nominal, AF307_PLUGGEDLOADS_FAN,AF307LIGHTEQUIPMENTSCHEDULE,AF307,94.78,100.0,240.000,2.532,2.400,0.000,0.213,0.000,0.787,General,0.000,240.000
 ElectricEquipment Internal Gains Nominal, AF308_PLUGGEDLOADS_FAN,AF308LIGHTEQUIPMENTSCHEDULE,AF308,58.60,100.0,240.000,4.095,2.400,0.000,0.213,0.000,0.787,General,0.000,240.000
 ElectricEquipment Internal Gains Nominal, AF1B10A-AF1B10B_1_PLUGGEDLOADS_FAN,AF1B10ALIGHTEQUIPMENTSCHEDULE,AF1B10A-AF1B10B_1,50.37,0.0,120.000,2.383,N/A,0.000,0.213,0.000,0.787,General,0.000,120.000
 ElectricEquipment Internal Gains Nominal, AF1B10A-AF1B10B_2_PLUGGEDLOADS_FAN,AF1B10ALIGHTEQUIPMENTSCHEDULE,AF1B10A-AF1B10B_2,61.07,0.0,120.000,1.965,N/A,0.000,0.213,0.000,0.787,General,0.000,120.000
 ElectricEquipment Internal Gains Nominal, AF1B10A-AF1B10B_3_PLUGGEDLOADS_FAN,AF1B10BLIGHTEQUIPMENTSCHEDULE,AF1B10A-AF1B10B_3,62.15,0.0,120.000,1.931,N/A,0.000,0.213,0.000,0.787,General,0.000,120.000
 ElectricEquipment Internal Gains Nominal, AF1B10A-AF1B10B_4_PLUGGEDLOADS_FAN,AF1B10BLIGHTEQUIPMENTSCHEDULE,AF1B10A-AF1B10B_4,63.60,0.0,120.000,1.887,N/A,0.000,0.213,0.000,0.787,General,0.000,120.000
 ElectricEquipment Internal Gains Nominal, AF1B12A_PLUGGEDLOADS_PROJECTOREPSON,AF1B12AACUSCHEDULE,AF1B12A,185.03,100.0,277.000,1.497,2.770,0.000,0.213,0.000,0.787,General,0.000,277.000
 ElectricEquipment Internal Gains Nominal, AF1B12A_PLUGGEDLOADS_FAN,AF1B12ALIGHTEQUIPMENTSCHEDULE,AF1B12A,185.03,100.0,240.000,1.297,2.400,0.000,0.213,0.000,0.787,General,0.000,240.000
 ElectricEquipment Internal Gains Nominal, AF1B12B_PLUGGEDLOADS_PROJECTOREPSON,AF1B12BACUSCHEDULE,AF1B12B,182.44,100.0,277.000,1.518,2.770,0.000,0.213,0.000,0.787,General,0.000,277.000
 ElectricEquipment Internal Gains Nominal, AF1B12B_PLUGGEDLOADS_FAN,AF1B12BLIGHTEQUIPMENTSCHEDULE,AF1B12B,182.44,100.0,240.000,1.316,2.400,0.000,0.213,0.000,0.787,General,0.000,240.000
 ElectricEquipment Internal Gains Nominal, AF1B12C_PLUGGEDLOADS_PROJECTOREPSON,AF1B12CACUSCHEDULE,AF1B12C,137.86,100.0,277.000,2.009,2.770,0.000,0.213,0.000,0.787,General,0.000,277.000
 ElectricEquipment Internal Gains Nominal, AF1B12C_PLUGGEDLOADS_FAN,AF1B12CLIGHTEQUIPMENTSCHEDULE,AF1B12C,137.86,100.0,240.000,1.741,2.400,0.000,0.213,0.000,0.787,General,0.000,240.000
 ElectricEquipment Internal Gains Nominal, AF1B12D_PLUGGEDLOADS_PROJECTOREPSON,AF1B12DACUSCHEDULE,AF1B12D,133.09,100.0,277.000,2.081,2.770,0.000,0.213,0.000,0.787,General,0.000,277.000
 ElectricEquipment Internal Gains Nominal, AF1B12D_PLUGGEDLOADS_FAN,AF1B12DLIGHTEQUIPMENTSCHEDULE,AF1B12D,133.09,100.0,240.000,1.803,2.400,0.000,0.213,0.000,0.787,General,0.000,240.000
 ElectricEquipment Internal Gains Nominal, AF1B12E_PLUGGEDLOADS_PROJECTOREPSON,AF1B12EACUSCHEDULE,AF1B12E,136.54,100.0,277.000,2.029,2.770,0.000,0.213,0.000,0.787,General,0.000,277.000
 ElectricEquipment Internal Gains Nominal, AF1B12E_PLUGGEDLOADS_FAN,AF1B12ELIGHTEQUIPMENTSCHEDULE,AF1B12E,136.54,100.0,240.000,1.758,2.400,0.000,0.213,0.000,0.787,General,0.000,240.000
 ElectricEquipment Internal Gains Nominal, AF1B12F_PLUGGEDLOADS_PROJECTOREPSON,AF1B12FACUSCHEDULE,AF1B12F,137.62,100.0,277.000,2.013,2.770,0.000,0.213,0.000,0.787,General,0.000,277.000
 ElectricEquipment Internal Gains Nominal, AF1B12F_PLUGGEDLOADS_FAN,AF1B12FLIGHTEQUIPMENTSCHEDULE,AF1B12F,137.62,100.0,240.000,1.744,2.400,0.000,0.213,0.000,0.787,General,0.000,240.000
 ElectricEquipment Internal Gains Nominal, AF1B03_PLUGGEDLOADS_FAN,AF1B03LIGHTEQUIPMENTSCHEDULE,AF1B03,62.83,0.0,240.000,3.820,N/A,0.000,0.213,0.000,0.787,General,0.000,240.000
 ElectricEquipment Internal Gains Nominal, AF1B04_PLUGGEDLOADS_FAN,AF1B04LIGHTEQUIPMENTSCHEDULE,AF1B04,67.32,0.0,240.000,3.565,N/A,0.000,0.213,0.000,0.787,General,0.000,240.000
 ElectricEquipment Internal Gains Nominal, AF2B06_PLUGGEDLOADS_FAN,AF2B06LIGHTEQUIPMENTSCHEDULE,AF2B06,91.39,100.0,120.000,1.313,1.200,0.000,0.213,0.000,0.787,General,0.000,120.000
 ElectricEquipment Internal Gains Nominal, AF2B07A_PLUGGEDLOADS_FAN,AF2B07ALIGHTEQUIPMENTSCHEDULE,AF2B07A,123.30,100.0,240.000,1.946,2.400,0.000,0.213,0.000,0.787,General,0.000,240.000
 ElectricEquipment Internal Gains Nominal, AF2B07B_PLUGGEDLOADS_FAN,AF2B07BLIGHTEQUIPMENTSCHEDULE,AF2B07B,146.86,100.0,300.000,2.043,3.000,0.000,0.213,0.000,0.787,General,0.000,300.000
 ElectricEquipment Internal Gains Nominal, AF2B07C_PLUGGEDLOADS_FAN,AF2B07CLIGHTEQUIPMENTSCHEDULE,AF2B07C,133.29,100.0,195.000,1.463,1.950,0.000,0.213,0.000,0.787,General,0.000,195.000
 ElectricEquipment Internal Gains Nominal, AF2B07D_PLUGGEDLOADS_FAN,AF2B07DLIGHTEQUIPMENTSCHEDULE,AF2B07D,147.08,100.0,195.000,1.326,1.950,0.000,0.213,0.000,0.787,General,0.000,195.000
 ElectricEquipment Internal Gains Nominal, AF2B07E_PLUGGEDLOADS_FAN,AF2B07ELIGHTEQUIPMENTSCHEDULE,AF2B07E,127.07,100.0,195.000,1.535,1.950,0.000,0.213,0.000,0.787,General,0.000,195.000
 ElectricEquipment Internal Gains Nominal, AF2B07F_PLUGGEDLOADS_FAN,AF2B07FLIGHTEQUIPMENTSCHEDULE,AF2B07F,133.73,100.0,195.000,1.458,1.950,0.000,0.213,0.000,0.787,General,0.000,195.000
 ElectricEquipment Internal Gains Nominal, GUIDANCE CONFERENCE_PLUGGEDLOADS_FAN,SAFADOFFICES_SCHEDULE,GUIDANCE CONFERENCE,18.03,10.0,180.000,9.983,18.000,0.000,0.213,0.000,0.787,General,0.000,180.000
 ElectricEquipment Internal Gains Nominal, GUIDANCE CONFERENCE_PLUGGEDLOADS_PC,SAFADOFFICES_SCHEDULE,GUIDANCE CONFERENCE,18.03,10.0,400.000,22.185,40.000,0.000,0.213,0.000,0.787,General,0.000,400.000
 ElectricEquipment Internal Gains Nominal, CLINIC_PLUGGEDLOADS_REF,SAFADOFFICES_SCHEDULE,CLINIC,9.61,10.0,77.000,8.015,7.700,0.000,0.213,0.000,0.787,General,0.000,77.000
 ElectricEquipment Internal Gains Nominal, GUIDANCE OFFICE_PLUGGEDLOADS_FAN,SAFADOFFICES_SCHEDULE,GUIDANCE OFFICE,44.30,10.0,60.000,1.354,6.000,0.000,0.213,0.000,0.787,General,0.000,60.000
 ElectricEquipment Internal Gains Nominal, CREATIVE HUB OFFICE_PLUGGEDLOADS_APPLE,SAFADOFFICES_SCHEDULE,CREATIVE HUB,373.42,10.0,200.000,0.536,20.000,0.000,0.213,0.000,0.787,General,0.000,200.000
 ElectricEquipment Internal Gains Nominal, ACC SERVICE BUREAU_PLUGGEDLOADS_PC,SAFADOFFICES_SCHEDULE,SERVICE BUREAU,105.81,10.0,800.000,7.561,80.000,0.000,0.213,0.000,0.787,General,0.000,800.000
 ElectricEquipment Internal Gains Nominal, ACC SERVICE BUREAU_PLUGGEDLOADS_APPLE,SAFADOFFICES_SCHEDULE,SERVICE BUREAU,105.81,10.0,200.000,1.890,20.000,0.000,0.213,0.000,0.787,General,0.000,200.000
 ElectricEquipment Internal Gains Nominal, ACC_PLUGGEDLOADS_APPLE,SAFADOFFICES_SCHEDULE,ACC OFFICE,124.52,10.0,800.000,6.425,80.000,0.000,0.213,0.000,0.787,General,0.000,800.000
 ElectricEquipment Internal Gains Nominal, ACC_PLUGGEDLOADS_REF,EVERYDAYON,ACC OFFICE,124.52,10.0,77.000,0.618,7.700,0.000,0.213,0.000,0.787,General,77.000,77.000
 ElectricEquipment Internal Gains Nominal, GUIDANCE CONFERENCE_PLUGGEDLOADS_PRINTER,SAFADOFFICES_SCHEDULE,GUIDANCE CONFERENCE,18.03,10.0,20.000,1.109,2.000,0.000,0.213,0.000,0.787,General,0.000,20.000
 ElectricEquipment Internal Gains Nominal, COUNSELOR_PLUGGEDLOADS_PC,SAFADOFFICES_SCHEDULE,GUIDANCE CONSELOR,32.60,10.0,100.000,3.067,10.000,0.000,0.213,0.000,0.787,General,0.000,100.000
 ElectricEquipment Internal Gains Nominal, ACC SERVICE BUREAU_PLUGGEDLOADS_PRINTER,SAFADOFFICES_SCHEDULE,SERVICE BUREAU,105.81,10.0,100.000,0.945,10.000,0.000,0.213,0.000,0.787,General,0.000,100.000
 ElectricEquipment Internal Gains Nominal, ACC_PLUGGEDLOADS_PRINTER,SAFADOFFICES_SCHEDULE,ACC OFFICE,124.52,10.0,60.000,0.482,6.000,0.000,0.213,0.000,0.787,General,0.000,60.000
 ElectricEquipment Internal Gains Nominal, ACC_PLUGGEDLOADS_PC,SAFADOFFICES_SCHEDULE,ACC OFFICE,124.52,10.0,400.000,3.212,40.000,0.000,0.213,0.000,0.787,General,0.000,400.000
 ElectricEquipment Internal Gains Nominal, FINE ARTS DEPT_PLUGGEDLOADS_PC,SAFADOFFICES_SCHEDULE,FINE ARTS DEPARTMENT,130.86,10.0,100.000,0.764,10.000,0.000,0.213,0.000,0.787,General,0.000,100.000
 ElectricEquipment Internal Gains Nominal, FINE ARTS DEPT_PLUGGEDLOADS_APPLE,SAFADOFFICES_SCHEDULE,FINE ARTS DEPARTMENT,130.86,10.0,200.000,1.528,20.000,0.000,0.213,0.000,0.787,General,0.000,200.000
 ElectricEquipment Internal Gains Nominal, FINE ARTS DEPT_PLUGGEDLOADS_PRINTER,SAFADOFFICES_SCHEDULE,FINE ARTS DEPARTMENT,130.86,10.0,40.000,0.306,4.000,0.000,0.213,0.000,0.787,General,0.000,40.000
 ElectricEquipment Internal Gains Nominal, FINE ARTS FACULTY_PLUGGEDLOADS_PROJECTOR,SAFADOFFICES_SCHEDULE,FACULTY ROOM_FINE ARTS,121.24,10.0,300.000,2.474,30.000,0.000,0.213,0.000,0.787,General,0.000,300.000
 ElectricEquipment Internal Gains Nominal, FINE ARTS FACULTY_PLUGGEDLOADS_TV,SAFADOFFICES_SCHEDULE,FACULTY ROOM_FINE ARTS,121.24,10.0,40.000,0.330,4.000,0.000,0.213,0.000,0.787,General,0.000,40.000
 ElectricEquipment Internal Gains Nominal, FINE ARTS FACULTY_PLUGGEDLOADS_WATER DISPENSER,SAFADOFFICES_SCHEDULE,FACULTY ROOM_FINE ARTS,121.24,10.0,300.000,2.474,30.000,0.000,0.213,0.000,0.787,General,0.000,300.000
 ElectricEquipment Internal Gains Nominal, FINE ARTS FACULTY_PLUGGEDLOADS_REF,EVERYDAYON,FACULTY ROOM_FINE ARTS,121.24,10.0,77.000,0.635,7.700,0.000,0.213,0.000,0.787,General,77.000,77.000
 ElectricEquipment Internal Gains Nominal, ARCHITECTURE FACULTY_PLUGGEDLOADS_PC,SAFADOFFICES_SCHEDULE,FACULTY ROOM_ARCHITECTURE,202.67,10.0,1300.000,6.414,130.000,0.000,0.213,0.000,0.787,General,0.000,1300.000
 ElectricEquipment Internal Gains Nominal, ARCHITECTURE FACULTY_PLUGGEDLOADS_WATER DISPENSER,SAFADOFFICES_SCHEDULE,FACULTY ROOM_ARCHITECTURE,202.67,10.0,300.000,1.480,30.000,0.000,0.213,0.000,0.787,General,0.000,300.000
 ElectricEquipment Internal Gains Nominal, ARCHITECTURE FACULTY_PLUGGEDLOADS_REF,EVERYDAYON,FACULTY ROOM_ARCHITECTURE,202.67,10.0,77.000,0.380,7.700,0.000,0.213,0.000,0.787,General,77.000,77.000
 ElectricEquipment Internal Gains Nominal, ARCHITECTURE FACULTY_PLUGGEDLOADS_PRINTER,SAFADOFFICES_SCHEDULE,FACULTY ROOM_ARCHITECTURE,202.67,10.0,20.000,9.868E-002,2.000,0.000,0.213,0.000,0.787,General,0.000,20.000
 ElectricEquipment Internal Gains Nominal, ARCHITECTURE DEPT_PLUGGEDLOADS_PC,SAFADOFFICES_SCHEDULE,ARCHITECTURE DEPARTMENT,79.91,10.0,300.000,3.754,30.000,0.000,0.213,0.000,0.787,General,0.000,300.000
 ElectricEquipment Internal Gains Nominal, ARCHITECTURE DEPT_PLUGGEDLOADS_APPLE,SAFADOFFICES_SCHEDULE,ARCHITECTURE DEPARTMENT,79.91,10.0,600.000,7.509,60.000,0.000,0.213,0.000,0.787,General,0.000,600.000
 ElectricEquipment Internal Gains Nominal, ARCHITECTURE DEPT_PLUGGEDLOADS_PRINTER,SAFADOFFICES_SCHEDULE,ARCHITECTURE DEPARTMENT,79.91,10.0,20.000,0.250,2.000,0.000,0.213,0.000,0.787,General,0.000,20.000
 ElectricEquipment Internal Gains Nominal, DEAN SECRETARY OFFICE_PLUGGEDLOADS_PC,SAFADOFFICES_SCHEDULE,DEAN SECRETARY OFFICE,41.86,10.0,100.000,2.389,10.000,0.000,0.213,0.000,0.787,General,0.000,100.000
 ElectricEquipment Internal Gains Nominal, DEAN SECRETARY OFFICE_PLUGGEDLOADS_REF,EVERYDAYON,DEAN SECRETARY OFFICE,41.86,10.0,77.000,1.839,7.700,0.000,0.213,0.000,0.787,General,77.000,77.000
 ElectricEquipment Internal Gains Nominal, DEAN SECRETARY OFFICE_PLUGGEDLOADS_PRINTER,SAFADOFFICES_SCHEDULE,DEAN SECRETARY OFFICE,41.86,10.0,40.000,0.955,4.000,0.000,0.213,0.000,0.787,General,0.000,40.000
 ElectricEquipment Internal Gains Nominal, CONFERENCE ROOM_PLUGGEDLOADS_PROJECTOR,SAFADOFFICES_SCHEDULE,SAFAD CONFERENCE ROOM,43.67,10.0,300.000,6.870,30.000,0.000,0.213,0.000,0.787,General,0.000,300.000
 ElectricEquipment Internal Gains Nominal, CONFERENCE ROOM_PLUGGEDLOADS_WATER DISPENSER,SAFADOFFICES_SCHEDULE,SAFAD CONFERENCE ROOM,43.67,10.0,300.000,6.870,30.000,0.000,0.213,0.000,0.787,General,0.000,300.000
 ElectricEquipment Internal Gains Nominal, DEAN OFFICE_PLUGGEDLOADS_APPLE,SAFADOFFICES_SCHEDULE,DEAN OFFICE,42.96,10.0,200.000,4.655,20.000,0.000,0.213,0.000,0.787,General,0.000,200.000
 ElectricEquipment Internal Gains Nominal, AUXILLIARY OFFICES_PLUGGEDLOADS_TV,SAFADOFFICES_SCHEDULE,AUXILLIARY OFFICES,128.70,10.0,40.000,0.311,4.000,0.000,0.213,0.000,0.787,General,0.000,40.000
 ElectricEquipment Internal Gains Nominal, AUXILLIARY OFFICES_PLUGGEDLOADS_PC,SAFADOFFICES_SCHEDULE,AUXILLIARY OFFICES,128.70,10.0,500.000,3.885,50.000,0.000,0.213,0.000,0.787,General,0.000,500.000
 ElectricEquipment Internal Gains Nominal, AUXILLIARY OFFICES_PLUGGEDLOADS_APPLE,SAFADOFFICES_SCHEDULE,AUXILLIARY OFFICES,128.70,10.0,600.000,4.662,60.000,0.000,0.213,0.000,0.787,General,0.000,600.000
 ElectricEquipment Internal Gains Nominal, IPD_PLUGGEDLOADS_PC,SAFADOFFICES_SCHEDULE,IPD,104.53,10.0,900.000,8.610,90.000,0.000,0.213,0.000,0.787,General,0.000,900.000
 ElectricEquipment Internal Gains Nominal, IPD_PLUGGEDLOADS_FAN,SAFADOFFICES_SCHEDULE,IPD,104.53,10.0,60.000,0.574,6.000,0.000,0.213,0.000,0.787,General,0.000,60.000
 ElectricEquipment Internal Gains Nominal, IPD_PLUGGEDLOADS_PRINTER,SAFADOFFICES_SCHEDULE,IPD,104.53,10.0,60.000,0.574,6.000,0.000,0.213,0.000,0.787,General,0.000,60.000
 ElectricEquipment Internal Gains Nominal, VPPF_PLUGGEDLOADS_PROJECTOR,SAFADOFFICES_SCHEDULE,VPPF,104.96,10.0,300.000,2.858,30.000,0.000,0.213,0.000,0.787,General,0.000,300.000
 ElectricEquipment Internal Gains Nominal, VPPF_PLUGGEDLOADS_LAPTOP,SAFADOFFICES_SCHEDULE,VPPF,104.96,10.0,40.000,0.381,4.000,0.000,0.213,0.000,0.787,General,0.000,40.000
 ElectricEquipment Internal Gains Nominal, VPPF_PLUGGEDLOADS_PC,SAFADOFFICES_SCHEDULE,VPPF,104.96,10.0,400.000,3.811,40.000,0.000,0.213,0.000,0.787,General,0.000,400.000
 ElectricEquipment Internal Gains Nominal, INTERNETNETWORK,EVERYDAYON,PUMP ROOM,27.38,0.0,100.000,3.652,N/A,0.000,0.213,0.000,0.787,General,100.000,100.000
 ElectricEquipment Internal Gains Nominal, MOTOR,EVERYDAYON,PUMP ROOM,27.38,0.0,2000.000,73.035,N/A,0.000,0.213,0.000,0.787,General,2000.000,2000.000
! <Shadowing/Sun Position Calculations Annual Simulations>, Calculation Method, Value {days}, Allowable Number Figures in Shadow Overlap {}, Polygon Clipping Algorithm, Sky Diffuse Modeling Algorithm
Shadowing/Sun Position Calculations Annual Simulations,AverageOverDaysInFrequency,20,15000,SutherlandHodgman,SimpleSkyDiffuseModeling
! <Zone/Window Adjacency Daylighting Counts>, Zone Name, Number of Exterior Windows, Number of Exterior Windows in Adjacent Zones
Zone/Window Adjacency Daylighting Counts, AF101,2,0
Zone/Window Adjacency Daylighting Counts, AF102,3,0
Zone/Window Adjacency Daylighting Counts, AF211,2,0
Zone/Window Adjacency Daylighting Counts, AF210,2,0
Zone/Window Adjacency Daylighting Counts, AF209,2,0
Zone/Window Adjacency Daylighting Counts, AF208,2,0
Zone/Window Adjacency Daylighting Counts, AF207,2,0
Zone/Window Adjacency Daylighting Counts, FINE ARTS DEPARTMENT,3,0
Zone/Window Adjacency Daylighting Counts, DEAN OFFICE,1,0
Zone/Window Adjacency Daylighting Counts, SAFAD CONFERENCE ROOM,1,0
Zone/Window Adjacency Daylighting Counts, ARCHITECTURE DEPARTMENT,1,0
Zone/Window Adjacency Daylighting Counts, FACULTY ROOM_ARCHITECTURE,2,0
Zone/Window Adjacency Daylighting Counts, AUXILLIARY OFFICES,2,0
Zone/Window Adjacency Daylighting Counts, AF304,2,0
Zone/Window Adjacency Daylighting Counts, AF306,2,0
Zone/Window Adjacency Daylighting Counts, IPD,3,0
Zone/Window Adjacency Daylighting Counts, GUIDANCE OFFICE,2,0
Zone/Window Adjacency Daylighting Counts, GUIDANCE CONSELOR,2,0
! <Zone/Window Adjacency Daylighting Matrix>, Zone Name, Number of Adjacent Zones with Windows,Adjacent Zone Names - 1st 100 (max)
Zone/Window Adjacency Daylighting Matrix, AF101,0
Zone/Window Adjacency Daylighting Matrix, AF102,0
Zone/Window Adjacency Daylighting Matrix, AF211,0
Zone/Window Adjacency Daylighting Matrix, AF210,0
Zone/Window Adjacency Daylighting Matrix, AF209,0
Zone/Window Adjacency Daylighting Matrix, AF208,0
Zone/Window Adjacency Daylighting Matrix, AF207,0
Zone/Window Adjacency Daylighting Matrix, FINE ARTS DEPARTMENT,0
Zone/Window Adjacency Daylighting Matrix, DEAN OFFICE,0
Zone/Window Adjacency Daylighting Matrix, SAFAD CONFERENCE ROOM,0
Zone/Window Adjacency Daylighting Matrix, ARCHITECTURE DEPARTMENT,0
Zone/Window Adjacency Daylighting Matrix, FACULTY ROOM_ARCHITECTURE,0
Zone/Window Adjacency Daylighting Matrix, AUXILLIARY OFFICES,0
Zone/Window Adjacency Daylighting Matrix, AF304,0
Zone/Window Adjacency Daylighting Matrix, AF306,0
Zone/Window Adjacency Daylighting Matrix, IPD,0
Zone/Window Adjacency Daylighting Matrix, GUIDANCE OFFICE,0
Zone/Window Adjacency Daylighting Matrix, GUIDANCE CONSELOR,0
! <ZoneInfiltration Airflow Stats Nominal>,Name,Schedule Name,Zone Name, Zone Floor Area {m2}, # Zone Occupants,Design Volume Flow Rate {m3/s},Volume Flow Rate/Floor Area {m3/s/m2},Volume Flow Rate/Exterior Surface Area {m3/s/m2},ACH - Air Changes per Hour,Equation A - Constant Term Coefficient {},Equation B - Temperature Term Coefficient {1/C},Equation C - Velocity Term Coefficient {s/m}, Equation D - Velocity Squared Term Coefficient {s2/m2}
 ZoneInfiltration Airflow Stats Nominal, AF1B12F SAFAD_INFILTRATION,SAFAD_INFILTRATION,AF1B12F,137.62,100.0,0.203,1.474E-003,6.855E-004,1.217,1.000,0.000,0.000,0.000
 ZoneInfiltration Airflow Stats Nominal, AF1B05 SAFAD_INFILTRATION,SAFAD_INFILTRATION,AF1B05,79.28,0.0,0.117,1.474E-003,1.054E-003,1.217,1.000,0.000,0.000,0.000
 ZoneInfiltration Airflow Stats Nominal, AF1B04 SAFAD_INFILTRATION,SAFAD_INFILTRATION,AF1B04,67.32,0.0,9.923E-002,1.474E-003,1.581E-003,1.217,1.000,0.000,0.000,0.000
 ZoneInfiltration Airflow Stats Nominal, AF1B03 SAFAD_INFILTRATION,SAFAD_INFILTRATION,AF1B03,62.83,0.0,9.262E-002,1.474E-003,9.321E-004,1.217,1.000,0.000,0.000,0.000
 ZoneInfiltration Airflow Stats Nominal, AF1B01 SAFAD_INFILTRATION,SAFAD_INFILTRATION,AF1B01,88.18,0.0,0.130,1.474E-003,1.118E-003,1.217,1.000,0.000,0.000,0.000
 ZoneInfiltration Airflow Stats Nominal, AF1B02 SAFAD_INFILTRATION,SAFAD_INFILTRATION,AF1B02,84.77,0.0,0.125,1.474E-003,1.098E-003,1.217,1.000,0.000,0.000,0.000
 ZoneInfiltration Airflow Stats Nominal, AF1B12B SAFAD_INFILTRATION,SAFAD_INFILTRATION,AF1B12B,182.44,100.0,0.269,1.474E-003,8.224E-004,1.217,1.000,0.000,0.000,0.000
 ZoneInfiltration Airflow Stats Nominal, AF1B12A SAFAD_INFILTRATION,SAFAD_INFILTRATION,AF1B12A,185.03,100.0,0.273,1.474E-003,7.193E-004,1.217,1.000,0.000,0.000,0.000
 ZoneInfiltration Airflow Stats Nominal, AF1B10A-AF1B10B_1 SAFAD_INFILTRATION,SAFAD_INFILTRATION,AF1B10A-AF1B10B_1,50.37,0.0,7.424E-002,1.474E-003,8.528E-004,1.217,1.000,0.000,0.000,0.000
 ZoneInfiltration Airflow Stats Nominal, AF1B10A-AF1B10B_2 SAFAD_INFILTRATION,SAFAD_INFILTRATION,AF1B10A-AF1B10B_2,61.07,0.0,9.002E-002,1.474E-003,1.696E-003,1.217,1.000,0.000,0.000,0.000
[...]
 Intermediate Sky Daylight Factors,01/01,AF209,AA79CB,4.0057E-002,0.0000
 Overcast Sky Daylight Factors,01/01,AF209,AA79CB,2.3340E-002,0.0000
 Clear Sky Daylight Factors,01/01,AF208,56224F,4.6487E-005,0.0000
 Clear Turbid Sky Daylight Factors,01/01,AF208,56224F,4.6487E-005,0.0000
 Intermediate Sky Daylight Factors,01/01,AF208,56224F,4.6487E-005,0.0000
 Overcast Sky Daylight Factors,01/01,AF208,56224F,4.6487E-005,0.0000
 Clear Sky Daylight Factors,01/01,AF208,DBB5AE,5.3020E-002,0.0000
 Clear Turbid Sky Daylight Factors,01/01,AF208,DBB5AE,5.2074E-002,0.0000
 Intermediate Sky Daylight Factors,01/01,AF208,DBB5AE,4.1259E-002,0.0000
 Overcast Sky Daylight Factors,01/01,AF208,DBB5AE,2.4157E-002,0.0000
 Clear Sky Daylight Factors,01/01,AF207,4140C3,5.2056E-002,0.0000
 Clear Turbid Sky Daylight Factors,01/01,AF207,4140C3,5.1166E-002,0.0000
 Intermediate Sky Daylight Factors,01/01,AF207,4140C3,4.0546E-002,0.0000
 Overcast Sky Daylight Factors,01/01,AF207,4140C3,2.3713E-002,0.0000
 Clear Sky Daylight Factors,01/01,AF207,B8F631,3.0386E-005,0.0000
 Clear Turbid Sky Daylight Factors,01/01,AF207,B8F631,3.0386E-005,0.0000
 Intermediate Sky Daylight Factors,01/01,AF207,B8F631,3.0386E-005,0.0000
 Overcast Sky Daylight Factors,01/01,AF207,B8F631,3.0386E-005,0.0000
 Clear Sky Daylight Factors,01/01,FINE ARTS DEPARTMENT,43F1B7,2.4884E-002,0.0000
 Clear Turbid Sky Daylight Factors,01/01,FINE ARTS DEPARTMENT,43F1B7,2.0773E-002,0.0000
 Intermediate Sky Daylight Factors,01/01,FINE ARTS DEPARTMENT,43F1B7,1.6165E-002,0.0000
 Overcast Sky Daylight Factors,01/01,FINE ARTS DEPARTMENT,43F1B7,1.9079E-002,0.0000
 Clear Sky Daylight Factors,01/01,FINE ARTS DEPARTMENT,4E9775,9.0247E-003,0.0000
 Clear Turbid Sky Daylight Factors,01/01,FINE ARTS DEPARTMENT,4E9775,7.9955E-003,0.0000
 Intermediate Sky Daylight Factors,01/01,FINE ARTS DEPARTMENT,4E9775,6.2834E-003,0.0000
 Overcast Sky Daylight Factors,01/01,FINE ARTS DEPARTMENT,4E9775,4.8697E-003,0.0000
 Clear Sky Daylight Factors,01/01,FINE ARTS DEPARTMENT,8DC4DB,5.9070E-002,0.0000
 Clear Turbid Sky Daylight Factors,01/01,FINE ARTS DEPARTMENT,8DC4DB,5.7456E-002,0.0000
 Intermediate Sky Daylight Factors,01/01,FINE ARTS DEPARTMENT,8DC4DB,4.5319E-002,0.0000
 Overcast Sky Daylight Factors,01/01,FINE ARTS DEPARTMENT,8DC4DB,2.6706E-002,0.0000
 Clear Sky Daylight Factors,01/01,DEAN OFFICE,F079DD,2.0874E-002,0.0000
 Clear Turbid Sky Daylight Factors,01/01,DEAN OFFICE,F079DD,1.6445E-002,0.0000
 Intermediate Sky Daylight Factors,01/01,DEAN OFFICE,F079DD,1.1073E-002,0.0000
 Overcast Sky Daylight Factors,01/01,DEAN OFFICE,F079DD,2.0637E-002,0.0000
 Clear Sky Daylight Factors,01/01,SAFAD CONFERENCE ROOM,A36B79,2.1108E-002,0.0000
 Clear Turbid Sky Daylight Factors,01/01,SAFAD CONFERENCE ROOM,A36B79,1.6635E-002,0.0000
 Intermediate Sky Daylight Factors,01/01,SAFAD CONFERENCE ROOM,A36B79,1.1201E-002,0.0000
 Overcast Sky Daylight Factors,01/01,SAFAD CONFERENCE ROOM,A36B79,2.0840E-002,0.0000
 Clear Sky Daylight Factors,01/01,ARCHITECTURE DEPARTMENT,DB825B,2.5300E-002,0.0000
 Clear Turbid Sky Daylight Factors,01/01,ARCHITECTURE DEPARTMENT,DB825B,1.9855E-002,0.0000
 Intermediate Sky Daylight Factors,01/01,ARCHITECTURE DEPARTMENT,DB825B,1.3192E-002,0.0000
 Overcast Sky Daylight Factors,01/01,ARCHITECTURE DEPARTMENT,DB825B,2.4555E-002,0.0000
 Clear Sky Daylight Factors,01/01,FACULTY ROOM_ARCHITECTURE,FAB8EC,1.1837E-002,0.0000
 Clear Turbid Sky Daylight Factors,01/01,FACULTY ROOM_ARCHITECTURE,FAB8EC,9.1015E-003,0.0000
 Intermediate Sky Daylight Factors,01/01,FACULTY ROOM_ARCHITECTURE,FAB8EC,5.2394E-003,0.0000
 Overcast Sky Daylight Factors,01/01,FACULTY ROOM_ARCHITECTURE,FAB8EC,9.8825E-003,0.0000
 Clear Sky Daylight Factors,01/01,FACULTY ROOM_ARCHITECTURE,4A10B4,6.0117E-004,0.0000
 Clear Turbid Sky Daylight Factors,01/01,FACULTY ROOM_ARCHITECTURE,4A10B4,5.8646E-004,0.0000
 Intermediate Sky Daylight Factors,01/01,FACULTY ROOM_ARCHITECTURE,4A10B4,5.5809E-004,0.0000
 Overcast Sky Daylight Factors,01/01,FACULTY ROOM_ARCHITECTURE,4A10B4,5.6712E-004,0.0000
 Clear Sky Daylight Factors,01/01,AUXILLIARY OFFICES,FC36B8,3.5665E-002,0.0000
 Clear Turbid Sky Daylight Factors,01/01,AUXILLIARY OFFICES,FC36B8,2.7973E-002,0.0000
 Intermediate Sky Daylight Factors,01/01,AUXILLIARY OFFICES,FC36B8,1.8660E-002,0.0000
 Overcast Sky Daylight Factors,01/01,AUXILLIARY OFFICES,FC36B8,3.4548E-002,0.0000
 Clear Sky Daylight Factors,01/01,AUXILLIARY OFFICES,2F24FA,1.5805E-002,0.0000
 Clear Turbid Sky Daylight Factors,01/01,AUXILLIARY OFFICES,2F24FA,1.3391E-002,0.0000
 Intermediate Sky Daylight Factors,01/01,AUXILLIARY OFFICES,2F24FA,1.0659E-002,0.0000
 Overcast Sky Daylight Factors,01/01,AUXILLIARY OFFICES,2F24FA,1.1815E-002,0.0000
 Clear Sky Daylight Factors,01/01,AF304,9854C5,2.5777E-002,0.0000
 Clear Turbid Sky Daylight Factors,01/01,AF304,9854C5,2.0163E-002,0.0000
 Intermediate Sky Daylight Factors,01/01,AF304,9854C5,1.2438E-002,0.0000
 Overcast Sky Daylight Factors,01/01,AF304,9854C5,2.1755E-002,0.0000
 Clear Sky Daylight Factors,01/01,AF304,E8ACBF,1.1935E-002,0.0000
 Clear Turbid Sky Daylight Factors,01/01,AF304,E8ACBF,1.0170E-002,0.0000
 Intermediate Sky Daylight Factors,01/01,AF304,E8ACBF,8.1033E-003,0.0000
 Overcast Sky Daylight Factors,01/01,AF304,E8ACBF,8.9988E-003,0.0000
 Clear Sky Daylight Factors,01/01,AF306,8A6C5F,3.4633E-004,0.0000
 Clear Turbid Sky Daylight Factors,01/01,AF306,8A6C5F,3.4633E-004,0.0000
 Intermediate Sky Daylight Factors,01/01,AF306,8A6C5F,3.4633E-004,0.0000
 Overcast Sky Daylight Factors,01/01,AF306,8A6C5F,3.4633E-004,0.0000
 Clear Sky Daylight Factors,01/01,AF306,B58EF6,2.4227E-002,0.0000
 Clear Turbid Sky Daylight Factors,01/01,AF306,B58EF6,1.8924E-002,0.0000
 Intermediate Sky Daylight Factors,01/01,AF306,B58EF6,1.1735E-002,0.0000
 Overcast Sky Daylight Factors,01/01,AF306,B58EF6,2.0606E-002,0.0000
 Clear Sky Daylight Factors,01/01,IPD,E3E8DA,5.0502E-003,0.0000
 Clear Turbid Sky Daylight Factors,01/01,IPD,E3E8DA,4.4157E-003,0.0000
 Intermediate Sky Daylight Factors,01/01,IPD,E3E8DA,3.2425E-003,0.0000
 Overcast Sky Daylight Factors,01/01,IPD,E3E8DA,2.6690E-003,0.0000
 Clear Sky Daylight Factors,01/01,IPD,BFA3B6,1.7844E-002,0.0000
 Clear Turbid Sky Daylight Factors,01/01,IPD,BFA3B6,1.5023E-002,0.0000
 Intermediate Sky Daylight Factors,01/01,IPD,BFA3B6,1.1715E-002,0.0000
 Overcast Sky Daylight Factors,01/01,IPD,BFA3B6,1.3402E-002,0.0000
 Clear Sky Daylight Factors,01/01,IPD,6AA0DD,4.3931E-002,0.0000
 Clear Turbid Sky Daylight Factors,01/01,IPD,6AA0DD,4.2321E-002,0.0000
 Intermediate Sky Daylight Factors,01/01,IPD,6AA0DD,3.2642E-002,0.0000
 Overcast Sky Daylight Factors,01/01,IPD,6AA0DD,1.9337E-002,0.0000
 Clear Sky Daylight Factors,01/01,GUIDANCE OFFICE,75BA40,4.7207E-002,0.0000
 Clear Turbid Sky Daylight Factors,01/01,GUIDANCE OFFICE,75BA40,4.4360E-002,0.0000
 Intermediate Sky Daylight Factors,01/01,GUIDANCE OFFICE,75BA40,4.1199E-002,0.0000
 Overcast Sky Daylight Factors,01/01,GUIDANCE OFFICE,75BA40,3.1997E-002,0.0000
 Clear Sky Daylight Factors,01/01,GUIDANCE OFFICE,1A0A08,3.9730E-002,0.0000
 Clear Turbid Sky Daylight Factors,01/01,GUIDANCE OFFICE,1A0A08,3.9225E-002,0.0000
 Intermediate Sky Daylight Factors,01/01,GUIDANCE OFFICE,1A0A08,3.0995E-002,0.0000
 Overcast Sky Daylight Factors,01/01,GUIDANCE OFFICE,1A0A08,1.7972E-002,0.0000
 Clear Sky Daylight Factors,01/01,GUIDANCE CONSELOR,C9D80E,5.4868E-002,0.0000
 Clear Turbid Sky Daylight Factors,01/01,GUIDANCE CONSELOR,C9D80E,5.4099E-002,0.0000
 Intermediate Sky Daylight Factors,01/01,GUIDANCE CONSELOR,C9D80E,4.3138E-002,0.0000
 Overcast Sky Daylight Factors,01/01,GUIDANCE CONSELOR,C9D80E,2.5529E-002,0.0000
 Clear Sky Daylight Factors,01/01,GUIDANCE CONSELOR,DA1795,4.0270E-002,0.0000
 Clear Turbid Sky Daylight Factors,01/01,GUIDANCE CONSELOR,DA1795,3.4741E-002,0.0000
 Intermediate Sky Daylight Factors,01/01,GUIDANCE CONSELOR,DA1795,3.2038E-002,0.0000
 Overcast Sky Daylight Factors,01/01,GUIDANCE CONSELOR,DA1795,3.5669E-002,0.0000
Environment:WarmupDays,  7
! <Warmup Convergence Information>,Zone Name,Environment Type/Name,Average Warmup Temperature Difference {deltaC},Std Dev Warmup Temperature Difference {deltaC},Max Temperature Pass/Fail Convergence,Min Temperature Pass/Fail Convergence,Average Warmup Load Difference {W},Std Dev Warmup Load Difference {W},Heating Load Pass/Fail Convergence,Cooling Load Pass/Fail Convergence
 Warmup Convergence Information,AF1B12F,RunPeriod: RUNPERIOD,5.1811188727E-002,5.5975453640E-002,Pass,Pass,0.0000000000,0.0000000000,Pass,Pass
 Warmup Convergence Information,AF1B05,RunPeriod: RUNPERIOD,5.4282810641E-003,8.1069736926E-003,Pass,Pass,0.1016860820,0.2461058033,Pass,Pass
 Warmup Convergence Information,AF1B04,RunPeriod: RUNPERIOD,1.1136402046E-002,1.4616192140E-002,Pass,Pass,0.1384920261,0.5586478116,Pass,Pass
 Warmup Convergence Information,AF1B03,RunPeriod: RUNPERIOD,1.0333387319E-002,1.3868004045E-002,Pass,Pass,0.1088071160,0.2931916573,Pass,Pass
 Warmup Convergence Information,AF1B01,RunPeriod: RUNPERIOD,2.5795786085E-002,2.1720819621E-002,Pass,Pass,0.0000000000,0.0000000000,Pass,Pass
 Warmup Convergence Information,AF1B02,RunPeriod: RUNPERIOD,2.5786581692E-002,2.1907867861E-002,Pass,Pass,0.0000000000,0.0000000000,Pass,Pass
 Warmup Convergence Information,AF1B12B,RunPeriod: RUNPERIOD,5.1738195588E-002,4.7920350927E-002,Pass,Pass,0.0000000000,0.0000000000,Pass,Pass
 Warmup Convergence Information,AF1B12A,RunPeriod: RUNPERIOD,4.7415249280E-002,4.2485522635E-002,Pass,Pass,0.0000000000,0.0000000000,Pass,Pass
 Warmup Convergence Information,AF1B10A-AF1B10B_1,RunPeriod: RUNPERIOD,3.1842429541E-002,3.3000859898E-002,Pass,Pass,0.0000000000,0.0000000000,Pass,Pass
 Warmup Convergence Information,AF1B10A-AF1B10B_2,RunPeriod: RUNPERIOD,3.3682427481E-002,2.9727548627E-002,Pass,Pass,0.0000000000,0.0000000000,Pass,Pass
 Warmup Convergence Information,AF1B10A-AF1B10B_4,RunPeriod: RUNPERIOD,3.3509166193E-002,2.9534803503E-002,Pass,Pass,0.0000000000,0.0000000000,Pass,Pass
 Warmup Convergence Information,AF1B10A-AF1B10B_5,RunPeriod: RUNPERIOD,3.0326041405E-002,2.6624502544E-002,Pass,Pass,0.0000000000,0.0000000000,Pass,Pass
 Warmup Convergence Information,AF1B10A-AF1B10B_3,RunPeriod: RUNPERIOD,3.3560528844E-002,2.9587967380E-002,Pass,Pass,0.0000000000,0.0000000000,Pass,Pass
 Warmup Convergence Information,CONSERVATION LAB,RunPeriod: RUNPERIOD,3.2439868690E-002,2.8634389193E-002,Pass,Pass,0.0000000000,0.0000000000,Pass,Pass
 Warmup Convergence Information,AF1B12E,RunPeriod: RUNPERIOD,5.1857296632E-002,5.4783586415E-002,Pass,Pass,0.0000000000,0.0000000000,Pass,Pass
 Warmup Convergence Information,AF1B12D,RunPeriod: RUNPERIOD,5.1688266047E-002,5.3119067626E-002,Pass,Pass,0.0000000000,0.0000000000,Pass,Pass
 Warmup Convergence Information,AF101,RunPeriod: RUNPERIOD,3.3934598434E-002,3.0336322410E-002,Pass,Pass,0.0000000000,0.0000000000,Pass,Pass
 Warmup Convergence Information,AF102,RunPeriod: RUNPERIOD,5.9170083026E-002,6.0298371001E-002,Pass,Pass,0.0000000000,0.0000000000,Pass,Pass
 Warmup Convergence Information,AF103,RunPeriod: RUNPERIOD,4.5916842689E-002,4.7125884435E-002,Pass,Pass,0.0000000000,0.0000000000,Pass,Pass
 Warmup Convergence Information,AF104,RunPeriod: RUNPERIOD,5.3861949511E-002,5.4623448571E-002,Pass,Pass,0.0000000000,0.0000000000,Pass,Pass
 Warmup Convergence Information,ACC OFFICE,RunPeriod: RUNPERIOD,3.1163964153E-002,2.7829524303E-002,Pass,Pass,0.0000000000,0.0000000000,Pass,Pass
 Warmup Convergence Information,SERVICE BUREAU,RunPeriod: RUNPERIOD,2.8281168566E-002,2.4503655702E-002,Pass,Pass,0.0000000000,0.0000000000,Pass,Pass
 Warmup Convergence Information,AF111,RunPeriod: RUNPERIOD,3.3115619091E-002,3.0024819084E-002,Pass,Pass,0.0000000000,0.0000000000,Pass,Pass
 Warmup Convergence Information,AF109B,RunPeriod: RUNPERIOD,3.3628796560E-002,3.0671950266E-002,Pass,Pass,0.0000000000,0.0000000000,Pass,Pass
 Warmup Convergence Information,AF109A,RunPeriod: RUNPERIOD,3.4210143175E-002,3.2838116366E-002,Pass,Pass,0.0000000000,0.0000000000,Pass,Pass
 Warmup Convergence Information,CREATIVE HUB,RunPeriod: RUNPERIOD,2.6616942299E-002,2.2080128182E-002,Pass,Pass,0.0000000000,0.0000000000,Pass,Pass
 Warmup Convergence Information,AF211,RunPeriod: RUNPERIOD,4.2722359530E-002,4.0133255759E-002,Pass,Pass,0.0000000000,0.0000000000,Pass,Pass
 Warmup Convergence Information,AF210,RunPeriod: RUNPERIOD,4.8723439137E-002,4.5630927832E-002,Pass,Pass,0.0000000000,0.0000000000,Pass,Pass
 Warmup Convergence Information,AF209,RunPeriod: RUNPERIOD,5.4921403109E-002,5.2146881076E-002,Pass,Pass,0.0000000000,0.0000000000,Pass,Pass
 Warmup Convergence Information,AF208,RunPeriod: RUNPERIOD,5.4903339950E-002,5.2203794323E-002,Pass,Pass,0.0000000000,0.0000000000,Pass,Pass
 Warmup Convergence Information,AF207,RunPeriod: RUNPERIOD,4.7224782102E-002,4.5567744737E-002,Pass,Pass,0.0000000000,0.0000000000,Pass,Pass
 Warmup Convergence Information,FINE ARTS DEPARTMENT,RunPeriod: RUNPERIOD,6.4408922712E-002,6.8250207602E-002,Pass,Pass,0.0000000000,0.0000000000,Pass,Pass
 Warmup Convergence Information,FACULTY ROOM_FINE ARTS,RunPeriod: RUNPERIOD,3.9433383417E-002,3.7895605108E-002,Pass,Pass,0.0000000000,0.0000000000,Pass,Pass
 Warmup Convergence Information,AF215,RunPeriod: RUNPERIOD,2.3966160943E-002,2.1399681633E-002,Pass,Pass,0.0000000000,0.0000000000,Pass,Pass
 Warmup Convergence Information,AF214,RunPeriod: RUNPERIOD,2.4449693323E-002,2.1803928729E-002,Pass,Pass,0.0000000000,0.0000000000,Pass,Pass
 Warmup Convergence Information,AF213,RunPeriod: RUNPERIOD,2.4489549129E-002,2.1860144013E-002,Pass,Pass,0.0000000000,0.0000000000,Pass,Pass
 Warmup Convergence Information,AF212,RunPeriod: RUNPERIOD,2.3965609073E-002,2.1574455717E-002,Pass,Pass,0.0000000000,0.0000000000,Pass,Pass
 Warmup Convergence Information,DEAN OFFICE,RunPeriod: RUNPERIOD,2.9452162727E-002,2.7873471958E-002,Pass,Pass,0.0000000000,0.0000000000,Pass,Pass
 Warmup Convergence Information,SAFAD CONFERENCE ROOM,RunPeriod: RUNPERIOD,2.9059621201E-002,2.7109420575E-002,Pass,Pass,0.0000000000,0.0000000000,Pass,Pass
 Warmup Convergence Information,DEAN SECRETARY OFFICE,RunPeriod: RUNPERIOD,2.0268077777E-002,1.4918229563E-002,Pass,Pass,0.0000000000,0.0000000000,Pass,Pass
 Warmup Convergence Information,ARCHITECTURE DEPARTMENT,RunPeriod: RUNPERIOD,5.1638146859E-002,5.0600545142E-002,Pass,Pass,0.0000000000,0.0000000000,Pass,Pass
 Warmup Convergence Information,FACULTY ROOM_ARCHITECTURE,RunPeriod: RUNPERIOD,3.3676936462E-002,3.0327384677E-002,Pass,Pass,0.0000000000,0.0000000000,Pass,Pass
 Warmup Convergence Information,AUXILLIARY OFFICES,RunPeriod: RUNPERIOD,4.1074005361E-002,4.1562203252E-002,Pass,Pass,0.0000000000,0.0000000000,Pass,Pass
 Warmup Convergence Information,AF304,RunPeriod: RUNPERIOD,4.1310976936E-002,3.9881638701E-002,Pass,Pass,0.0000000000,0.0000000000,Pass,Pass
 Warmup Convergence Information,AF306,RunPeriod: RUNPERIOD,3.6102725061E-002,3.2180160582E-002,Pass,Pass,0.0000000000,0.0000000000,Pass,Pass
 Warmup Convergence Information,VPPF,RunPeriod: RUNPERIOD,3.4993204451E-002,3.2881855667E-002,Pass,Pass,0.0000000000,0.0000000000,Pass,Pass
 Warmup Convergence Information,IPD_CR,RunPeriod: RUNPERIOD,1.9098905327E-002,1.7100179382E-002,Pass,Pass,0.0000000000,0.0000000000,Pass,Pass
 Warmup Convergence Information,IPD,RunPeriod: RUNPERIOD,5.9662071238E-002,6.4743253109E-002,Pass,Pass,0.0000000000,0.0000000000,Pass,Pass
 Warmup Convergence Information,AF307,RunPeriod: RUNPERIOD,3.5804199315E-002,3.5381664472E-002,Pass,Pass,0.0000000000,0.0000000000,Pass,Pass
 Warmup Convergence Information,AF2B06,RunPeriod: RUNPERIOD,3.5496049510E-002,3.3890829998E-002,Pass,Pass,0.0000000000,0.0000000000,Pass,Pass
 Warmup Convergence Information,AF2B07A,RunPeriod: RUNPERIOD,5.6255463372E-002,4.8039677682E-002,Pass,Pass,0.0000000000,0.0000000000,Pass,Pass
 Warmup Convergence Information,PAINTING STUDIO_1,RunPeriod: RUNPERIOD,2.5661369764E-002,2.1114634193E-002,Pass,Pass,0.0000000000,0.0000000000,Pass,Pass
 Warmup Convergence Information,PAINTING STUDIO_2,RunPeriod: RUNPERIOD,2.4996422407E-002,2.0526517079E-002,Pass,Pass,0.0000000000,0.0000000000,Pass,Pass
 Warmup Convergence Information,PAINTING STUDIO_3,RunPeriod: RUNPERIOD,2.4378108141E-002,2.0139165784E-002,Pass,Pass,0.0000000000,0.0000000000,Pass,Pass
 Warmup Convergence Information,AF2B07B,RunPeriod: RUNPERIOD,5.4890920540E-002,4.7249324586E-002,Pass,Pass,0.0000000000,0.0000000000,Pass,Pass
 Warmup Convergence Information,CANTEEN,RunPeriod: RUNPERIOD,1.4253192581E-002,1.0027809837E-002,Pass,Pass,0.0000000000,0.0000000000,Pass,Pass
 Warmup Convergence Information,GENERATOR AND EE ROOM,RunPeriod: RUNPERIOD,2.3062385222E-002,1.8902284368E-002,Pass,Pass,0.0000000000,0.0000000000,Pass,Pass
 Warmup Convergence Information,AF308,RunPeriod: RUNPERIOD,2.3975666889E-002,2.1243921407E-002,Pass,Pass,0.0000000000,0.0000000000,Pass,Pass
 Warmup Convergence Information,AF1B12C,RunPeriod: RUNPERIOD,5.0289969532E-002,4.8377752749E-002,Pass,Pass,0.0000000000,0.0000000000,Pass,Pass
 Warmup Convergence Information,AF110,RunPeriod: RUNPERIOD,3.2224430966E-002,2.9149476370E-002,Pass,Pass,0.0000000000,0.0000000000,Pass,Pass
 Warmup Convergence Information,AF2B07C,RunPeriod: RUNPERIOD,5.3001748284E-002,4.3400567217E-002,Pass,Pass,0.0000000000,0.0000000000,Pass,Pass
 Warmup Convergence Information,AF2B07D,RunPeriod: RUNPERIOD,5.2095785230E-002,4.3549120984E-002,Pass,Pass,0.0000000000,0.0000000000,Pass,Pass
 Warmup Convergence Information,AF2B07E,RunPeriod: RUNPERIOD,5.3439084851E-002,4.4904209428E-002,Pass,Pass,0.0000000000,0.0000000000,Pass,Pass
 Warmup Convergence Information,AF2B07F,RunPeriod: RUNPERIOD,4.9916021990E-002,4.1557219542E-002,Pass,Pass,0.0000000000,0.0000000000,Pass,Pass
 Warmup Convergence Information,GUIDANCE OFFICE,RunPeriod: RUNPERIOD,6.3791715208E-002,7.1449010956E-002,Pass,Pass,0.0000000000,0.0000000000,Pass,Pass
 Warmup Convergence Information,CLINIC,RunPeriod: RUNPERIOD,8.6938295763E-002,0.1197089518,Pass,Pass,0.0000000000,0.0000000000,Pass,Pass
 Warmup Convergence Information,GUIDANCE CONFERENCE,RunPeriod: RUNPERIOD,0.1023036390,0.1143240132,Pass,Pass,0.0000000000,0.0000000000,Pass,Pass
 Warmup Convergence Information,GUIDANCE CONSELOR,RunPeriod: RUNPERIOD,9.9902882762E-002,0.1122059856,Pass,Pass,0.0000000000,0.0000000000,Pass,Pass
 Warmup Convergence Information,FIRST FLOOR CR,RunPeriod: RUNPERIOD,1.0652748093E-002,6.7884689889E-003,Pass,Pass,0.0000000000,0.0000000000,Pass,Pass
 Warmup Convergence Information,SECOND FLOOR CR,RunPeriod: RUNPERIOD,1.0797286712E-002,6.8540701551E-003,Pass,Pass,0.0000000000,0.0000000000,Pass,Pass
 Warmup Convergence Information,BASEMENT 3 CR,RunPeriod: RUNPERIOD,1.0427004052E-002,6.5601754367E-003,Pass,Pass,0.0000000000,0.0000000000,Pass,Pass
 Warmup Convergence Information,PUMP ROOM,RunPeriod: RUNPERIOD,1.3085607008E-002,9.8723713424E-003,Pass,Pass,0.0000000000,0.0000000000,Pass,Pass
 Warmup Convergence Information,AF305,RunPeriod: RUNPERIOD,2.1208034957E-002,1.8819452634E-002,Pass,Pass,0.0000000000,0.0000000000,Pass,Pass
 Warmup Convergence Information,CB4 CLASSROOM,RunPeriod: RUNPERIOD,3.8894820216E-002,3.5591987948E-002,Pass,Pass,0.0000000000,0.0000000000,Pass,Pass
 Warmup Convergence Information,CB3 CLASSROOM,RunPeriod: RUNPERIOD,3.7474152780E-002,3.3248749957E-002,Pass,Pass,0.0000000000,0.0000000000,Pass,Pass
 Warmup Convergence Information,CB2 CLASSROOM,RunPeriod: RUNPERIOD,3.8320039061E-002,3.5395309622E-002,Pass,Pass,0.0000000000,0.0000000000,Pass,Pass
 Warmup Convergence Information,CB1 CLASSROOM,RunPeriod: RUNPERIOD,3.5677134019E-002,3.4360086721E-002,Pass,Pass,0.0000000000,0.0000000000,Pass,Pass
! <Program Control Information:Threads/Parallel Sims>, Threading Supported,Maximum Number of Threads, Env Set Threads (OMP_NUM_THREADS), EP Env Set Threads (EP_OMP_NUM_THREADS), IDF Set Threads, Number of Threads Used (Interior Radiant Exchange), Number Nominal Surfaces, Number Parallel Sims
Program Control:Threads/Parallel Sims, No,1, N/A, N/A, N/A, N/A, N/A, N/A
End of Data
