Program Version,EnergyPlus, Version 8.7.0-78a111df4a, YMD=2019.12.13 17:27
! This file shows details about the branches, nodes, and other
! elements of the flow connections.
! This file is intended for use in "debugging" potential problems
! that may also be detected by the program, but may be more easily
! identified by "eye".
! This file is also intended to support software which draws a
! schematic diagram of the HVAC system.
! ===============================================================
! #Nodes,<Number of Unique Nodes>
 #Nodes,642
! <Node>,<NodeNumber>,<Node Name>,<Node Fluid Type>,<# Times Node Referenced After Definition>
 Node,1,AF101WINDAC1AIROUTLETNODE,Air,3
 Node,2,AF101WINDAC2AIROUTLETNODE,Air,3
 Node,3,AF101WINDAC1AIRINLETNODE,Air,3
 Node,4,AF101WINDAC2AIRINLETNODE,Air,3
 Node,5,AF102WINDAC1AIROUTLETNODE,Air,3
 Node,6,AF102WINDAC2AIROUTLETNODE,Air,3
 Node,7,AF102WINDAC1AIRINLETNODE,Air,3
 Node,8,AF102WINDAC2AIRINLETNODE,Air,3
 Node,9,AF103WINDAC1AIROUTLETNODE,Air,3
 Node,10,AF103WINDAC2AIROUTLETNODE,Air,3
 Node,11,AF103WINDAC1AIRINLETNODE,Air,3
 Node,12,AF103WINDAC2AIRINLETNODE,Air,3
 Node,13,AF104WINDAC1AIROUTLETNODE,Air,3
 Node,14,AF104WINDAC2AIROUTLETNODE,Air,3
 Node,15,AF104WINDAC1AIRINLETNODE,Air,3
 Node,16,AF104WINDAC2AIRINLETNODE,Air,3
 Node,17,AF109AWINDAC1AIROUTLETNODE,Air,3
 Node,18,AF109AWINDAC2AIROUTLETNODE,Air,3
 Node,19,AF109AWINDAC1AIRINLETNODE,Air,3
 Node,20,AF109AWINDAC2AIRINLETNODE,Air,3
 Node,21,AF109BWINDAC1AIROUTLETNODE,Air,3
 Node,22,AF109BWINDAC2AIROUTLETNODE,Air,3
 Node,23,AF109BWINDAC1AIRINLETNODE,Air,3
 Node,24,AF109BWINDAC2AIRINLETNODE,Air,3
 Node,25,AF110WINDAC1AIROUTLETNODE,Air,3
 Node,26,AF110WINDAC2AIROUTLETNODE,Air,3
 Node,27,AF110WINDAC1AIRINLETNODE,Air,3
 Node,28,AF110WINDAC2AIRINLETNODE,Air,3
 Node,29,AF111WINDAC1AIROUTLETNODE,Air,3
 Node,30,AF111WINDAC2AIROUTLETNODE,Air,3
 Node,31,AF111WINDAC1AIRINLETNODE,Air,3
 Node,32,AF111WINDAC2AIRINLETNODE,Air,3
 Node,33,AF207WINDAC1AIROUTLETNODE,Air,3
 Node,34,AF207WINDAC2AIROUTLETNODE,Air,3
 Node,35,AF207WINDAC1AIRINLETNODE,Air,3
 Node,36,AF207WINDAC2AIRINLETNODE,Air,3
 Node,37,AF208WINDAC1AIROUTLETNODE,Air,3
 Node,38,AF208WINDAC2AIROUTLETNODE,Air,3
 Node,39,AF208WINDAC1AIRINLETNODE,Air,3
 Node,40,AF208WINDAC2AIRINLETNODE,Air,3
 Node,41,AF209WINDAC1AIROUTLETNODE,Air,3
 Node,42,AF209WINDAC2AIROUTLETNODE,Air,3
 Node,43,AF209WINDAC1AIRINLETNODE,Air,3
 Node,44,AF209WINDAC2AIRINLETNODE,Air,3
 Node,45,AF210WINDAC1AIROUTLETNODE,Air,3
 Node,46,AF210WINDAC2AIROUTLETNODE,Air,3
 Node,47,AF210WINDAC1AIRINLETNODE,Air,3
 Node,48,AF210WINDAC2AIRINLETNODE,Air,3
 Node,49,AF211WINDAC1AIROUTLETNODE,Air,3
 Node,50,AF211WINDAC2AIROUTLETNODE,Air,3
 Node,51,AF211WINDAC1AIRINLETNODE,Air,3
 Node,52,AF211WINDAC2AIRINLETNODE,Air,3
 Node,53,AF212WINDAC1AIROUTLETNODE,Air,3
 Node,54,AF212WINDAC2AIROUTLETNODE,Air,3
 Node,55,AF212WINDAC1AIRINLETNODE,Air,3
 Node,56,AF212WINDAC2AIRINLETNODE,Air,3
 Node,57,AF213WINDAC1AIROUTLETNODE,Air,3
 Node,58,AF213WINDAC2AIROUTLETNODE,Air,3
 Node,59,AF213WINDAC1AIRINLETNODE,Air,3
 Node,60,AF213WINDAC2AIRINLETNODE,Air,3
 Node,61,AF214WINDAC1AIROUTLETNODE,Air,3
 Node,62,AF214WINDAC2AIROUTLETNODE,Air,3
 Node,63,AF214WINDAC1AIRINLETNODE,Air,3
 Node,64,AF214WINDAC2AIRINLETNODE,Air,3
 Node,65,AF215WINDAC1AIROUTLETNODE,Air,3
 Node,66,AF215WINDAC2AIROUTLETNODE,Air,3
 Node,67,AF215WINDAC1AIRINLETNODE,Air,3
 Node,68,AF215WINDAC2AIRINLETNODE,Air,3
 Node,69,AF304WINDAC1AIROUTLETNODE,Air,3
 Node,70,AF304WINDAC2AIROUTLETNODE,Air,3
 Node,71,AF304WINDAC1AIRINLETNODE,Air,3
 Node,72,AF304WINDAC2AIRINLETNODE,Air,3
 Node,73,AF306WINDAC1AIROUTLETNODE,Air,3
 Node,74,AF306WINDAC2AIROUTLETNODE,Air,3
 Node,75,AF306WINDAC1AIRINLETNODE,Air,3
 Node,76,AF306WINDAC2AIRINLETNODE,Air,3
 Node,77,AF1B12AWINDAC1AIROUTLETNODE,Air,3
 Node,78,AF1B12AWINDAC2AIROUTLETNODE,Air,3
 Node,79,AF1B12AWINDAC1AIRINLETNODE,Air,3
 Node,80,AF1B12AWINDAC2AIRINLETNODE,Air,3
 Node,81,AF1B12BWINDAC1AIROUTLETNODE,Air,3
 Node,82,AF1B12BWINDAC2AIROUTLETNODE,Air,3
 Node,83,AF1B12BWINDAC1AIRINLETNODE,Air,3
 Node,84,AF1B12BWINDAC2AIRINLETNODE,Air,3
 Node,85,AF1B12CWINDAC1AIROUTLETNODE,Air,3
 Node,86,AF1B12CWINDAC2AIROUTLETNODE,Air,3
 Node,87,AF1B12CWINDAC1AIRINLETNODE,Air,3
 Node,88,AF1B12CWINDAC2AIRINLETNODE,Air,3
 Node,89,AF1B12DWINDAC1AIROUTLETNODE,Air,3
 Node,90,AF1B12DWINDAC2AIROUTLETNODE,Air,3
 Node,91,AF1B12DWINDAC1AIRINLETNODE,Air,3
 Node,92,AF1B12DWINDAC2AIRINLETNODE,Air,3
 Node,93,AF1B12EWINDAC1AIROUTLETNODE,Air,3
 Node,94,AF1B12EWINDAC2AIROUTLETNODE,Air,3
 Node,95,AF1B12EWINDAC1AIRINLETNODE,Air,3
 Node,96,AF1B12EWINDAC2AIRINLETNODE,Air,3
 Node,97,AF1B12FWINDAC1AIROUTLETNODE,Air,3
 Node,98,AF1B12FWINDAC2AIROUTLETNODE,Air,3
 Node,99,AF1B12FWINDAC1AIRINLETNODE,Air,3
 Node,100,AF1B12FWINDAC2AIRINLETNODE,Air,3
 Node,101,AFCB1WINDAC1AIROUTLETNODE,Air,3
 Node,102,AFCB1WINDAC2AIROUTLETNODE,Air,3
 Node,103,AFCB1WINDAC1AIRINLETNODE,Air,3
 Node,104,AFCB1WINDAC2AIRINLETNODE,Air,3
 Node,105,AFCB2WINDAC1AIROUTLETNODE,Air,3
 Node,106,AFCB2WINDAC2AIROUTLETNODE,Air,3
 Node,107,AFCB2WINDAC1AIRINLETNODE,Air,3
 Node,108,AFCB2WINDAC2AIRINLETNODE,Air,3
 Node,109,AFCB3WINDAC1AIROUTLETNODE,Air,3
 Node,110,AFCB3WINDAC2AIROUTLETNODE,Air,3
 Node,111,AFCB3WINDAC1AIRINLETNODE,Air,3
 Node,112,AFCB3WINDAC2AIRINLETNODE,Air,3
 Node,113,AFCB4WINDAC1AIROUTLETNODE,Air,3
 Node,114,AFCB4WINDAC2AIROUTLETNODE,Air,3
 Node,115,AFCB4WINDAC1AIRINLETNODE,Air,3
 Node,116,AFCB4WINDAC2AIRINLETNODE,Air,3
 Node,117,CLINICWINDAC1AIROUTLETNODE,Air,3
 Node,118,CLINICWINDAC1AIRINLETNODE,Air,3
 Node,119,COUNSELORWINDAC1AIROUTLETNODE,Air,3
 Node,120,COUNSELORWINDAC1AIRINLETNODE,Air,3
 Node,121,GUIDANCEOFFICEWINDAC1AIROUTLETNODE,Air,3
 Node,122,GUIDANCEOFFICEWINDAC1AIRINLETNODE,Air,3
 Node,123,CREATIVEHUBWINDAC1AIROUTLETNODE,Air,3
 Node,124,CREATIVEHUBOFFICEWINDAC1AIROUTLETNODE,Air,3
 Node,125,DISCUSSIONROOMWINDAC1AIROUTLETNODE,Air,3
 Node,126,CREATIVEHUBWINDAC1AIRINLETNODE,Air,3
 Node,127,CREATIVEHUBOFFICEWINDAC1AIRINLETNODE,Air,3
 Node,128,DISCUSSIONROOMWINDAC1AIRINLETNODE,Air,3
 Node,129,SERVICEBUREAUWINDAC1AIROUTLETNODE,Air,3
 Node,130,SERVICEBUREAUWINDAC2AIROUTLETNODE,Air,3
 Node,131,SERVICEBUREAUWINDAC3AIROUTLETNODE,Air,3
 Node,132,SERVICEBUREAUWINDAC4AIROUTLETNODE,Air,3
 Node,133,SERVICEBUREAUWINDAC1AIRINLETNODE,Air,3
 Node,134,SERVICEBUREAUWINDAC2AIRINLETNODE,Air,3
 Node,135,SERVICEBUREAUWINDAC3AIRINLETNODE,Air,3
 Node,136,SERVICEBUREAUWINDAC4AIRINLETNODE,Air,3
 Node,137,ACCWINDAC1AIROUTLETNODE,Air,3
 Node,138,ACCWINDAC2AIROUTLETNODE,Air,3
 Node,139,ACCWINDAC1AIRINLETNODE,Air,3
 Node,140,ACCWINDAC2AIRINLETNODE,Air,3
 Node,141,FINEARTSDEPTWINDAC1AIROUTLETNODE,Air,3
 Node,142,FINEARTSDEPTWINDAC2AIROUTLETNODE,Air,3
 Node,143,FINEARTSDEPTWINDAC1AIRINLETNODE,Air,3
 Node,144,FINEARTSDEPTWINDAC2AIRINLETNODE,Air,3
 Node,145,FINEARTSFACULTYWINDAC1AIROUTLETNODE,Air,3
 Node,146,FINEARTSFACULTYWINDAC2AIROUTLETNODE,Air,3
 Node,147,FINEARTSFACULTYWINDAC1AIRINLETNODE,Air,3
 Node,148,FINEARTSFACULTYWINDAC2AIRINLETNODE,Air,3
 Node,149,ARCHIFACULTYWINDAC1AIROUTLETNODE,Air,3
 Node,150,ARCHIFACULTYWINDAC2AIROUTLETNODE,Air,3
 Node,151,ARCHIFACULTYWINDAC3AIROUTLETNODE,Air,3
 Node,152,ARCHIFACULTYWINDAC1AIRINLETNODE,Air,3
 Node,153,ARCHIFACULTYWINDAC2AIRINLETNODE,Air,3
 Node,154,ARCHIFACULTYWINDAC3AIRINLETNODE,Air,3
 Node,155,ARCHIDEPTWINDAC1AIROUTLETNODE,Air,3
 Node,156,ARCHIDEPTWINDAC2AIROUTLETNODE,Air,3
 Node,157,ARCHIDEPTWINDAC1AIRINLETNODE,Air,3
 Node,158,ARCHIDEPTWINDAC2AIRINLETNODE,Air,3
 Node,159,DEANSECWINDAC1AIROUTLETNODE,Air,3
 Node,160,DEANSECWINDAC1AIRINLETNODE,Air,3
 Node,161,SAFADCONFWINDAC1AIROUTLETNODE,Air,3
 Node,162,SAFADCONFWINDAC1AIRINLETNODE,Air,3
 Node,163,DEANOFFICEWINDAC1AIROUTLETNODE,Air,3
 Node,164,DEANOFFICEWINDAC1AIRINLETNODE,Air,3
 Node,165,AUXOFFICESWINDAC1AIROUTLETNODE,Air,3
 Node,166,AUXOFFICESWINDAC2AIROUTLETNODE,Air,3
 Node,167,AUXOFFICESWINDAC3AIROUTLETNODE,Air,3
 Node,168,AUXOFFICESWINDAC1AIRINLETNODE,Air,3
 Node,169,AUXOFFICESWINDAC2AIRINLETNODE,Air,3
 Node,170,AUXOFFICESWINDAC3AIRINLETNODE,Air,3
 Node,171,IPDWINDAC1AIROUTLETNODE,Air,3
 Node,172,IPDWINDAC2AIROUTLETNODE,Air,3
 Node,173,IPDWINDAC1AIRINLETNODE,Air,3
 Node,174,IPDWINDAC2AIRINLETNODE,Air,3
 Node,175,VPPFWINDAC1AIROUTLETNODE,Air,3
 Node,176,VPPFWINDAC1AIRINLETNODE,Air,3
 Node,177,AF101WINDAC1OAMIXERINNODE,Air,1
 Node,178,AF101WINDAC2OAMIXERINNODE,Air,1
 Node,179,AF102WINDAC1OAMIXERINNODE,Air,1
 Node,180,AF102WINDAC2OAMIXERINNODE,Air,1
 Node,181,AF103WINDAC1OAMIXERINNODE,Air,1
 Node,182,AF103WINDAC2OAMIXERINNODE,Air,1
 Node,183,AF104WINDAC1OAMIXERINNODE,Air,1
 Node,184,AF104WINDAC2OAMIXERINNODE,Air,1
 Node,185,AF109AWINDAC1OAMIXERINNODE,Air,1
 Node,186,AF109AWINDAC2OAMIXERINNODE,Air,1
 Node,187,AF109BWINDAC1OAMIXERINNODE,Air,1
 Node,188,AF109BWINDAC2OAMIXERINNODE,Air,1
 Node,189,AF110WINDAC1OAMIXERINNODE,Air,1
 Node,190,AF110WINDAC2OAMIXERINNODE,Air,1
 Node,191,AF111WINDAC1OAMIXERINNODE,Air,1
 Node,192,AF111WINDAC2OAMIXERINNODE,Air,1
 Node,193,AF207WINDAC1OAMIXERINNODE,Air,1
 Node,194,AF207WINDAC2OAMIXERINNODE,Air,1
 Node,195,AF208WINDAC1OAMIXERINNODE,Air,1
 Node,196,AF208WINDAC2OAMIXERINNODE,Air,1
 Node,197,AF209WINDAC1OAMIXERINNODE,Air,1
 Node,198,AF209WINDAC2OAMIXERINNODE,Air,1
 Node,199,AF210WINDAC1OAMIXERINNODE,Air,1
 Node,200,AF210WINDAC2OAMIXERINNODE,Air,1
 Node,201,AF211WINDAC1OAMIXERINNODE,Air,1
 Node,202,AF211WINDAC2OAMIXERINNODE,Air,1
 Node,203,AF212WINDAC1OAMIXERINNODE,Air,1
 Node,204,AF212WINDAC2OAMIXERINNODE,Air,1
 Node,205,AF213WINDAC1OAMIXERINNODE,Air,1
 Node,206,AF213WINDAC2OAMIXERINNODE,Air,1
 Node,207,AF214WINDAC1OAMIXERINNODE,Air,1
 Node,208,AF214WINDAC2OAMIXERINNODE,Air,1
 Node,209,AF215WINDAC1OAMIXERINNODE,Air,1
 Node,210,AF215WINDAC2OAMIXERINNODE,Air,1
 Node,211,AF304WINDAC1OAMIXERINNODE,Air,1
 Node,212,AF304WINDAC2OAMIXERINNODE,Air,1
 Node,213,AF306WINDAC1OAMIXERINNODE,Air,1
 Node,214,AF306WINDAC2OAMIXERINNODE,Air,1
 Node,215,AF1B12AWINDAC1OAMIXERINNODE,Air,1
 Node,216,AF1B12AWINDAC2OAMIXERINNODE,Air,1
 Node,217,AF1B12BWINDAC1OAMIXERINNODE,Air,1
 Node,218,AF1B12BWINDAC2OAMIXERINNODE,Air,1
 Node,219,AF1B12CWINDAC1OAMIXERINNODE,Air,1
 Node,220,AF1B12CWINDAC2OAMIXERINNODE,Air,1
 Node,221,AF1B12DWINDAC1OAMIXERINNODE,Air,1
 Node,222,AF1B12DWINDAC2OAMIXERINNODE,Air,1
 Node,223,AF1B12EWINDAC1OAMIXERINNODE,Air,1
 Node,224,AF1B12EWINDAC2OAMIXERINNODE,Air,1
 Node,225,AF1B12FWINDAC1OAMIXERINNODE,Air,1
 Node,226,AF1B12FWINDAC2OAMIXERINNODE,Air,1
 Node,227,AFCB1WINDAC1OAMIXERINNODE,Air,1
 Node,228,AFCB1WINDAC2OAMIXERINNODE,Air,1
 Node,229,AFCB2WINDAC1OAMIXERINNODE,Air,1
 Node,230,AFCB2WINDAC2OAMIXERINNODE,Air,1
 Node,231,AFCB3WINDAC1OAMIXERINNODE,Air,1
 Node,232,AFCB3WINDAC2OAMIXERINNODE,Air,1
 Node,233,AFCB4WINDAC1OAMIXERINNODE,Air,1
 Node,234,AFCB4WINDAC2OAMIXERINNODE,Air,1
 Node,235,CLINICWINDAC1OAMIXERINNODE,Air,1
 Node,236,COUNSELORWINDAC1OAMIXERINNODE,Air,1
 Node,237,GUIDANCEOFFICEWINDAC1OAMIXERINNODE,Air,1
 Node,238,CREATIVEHUBWINDAC1OAMIXERINNODE,Air,1
 Node,239,CREATIVEHUBOFFICEWINDAC1OAMIXERINNODE,Air,1
 Node,240,DISCUSSIONROOMWINDAC1OAMIXERINNODE,Air,1
 Node,241,SERVICEBUREAUWINDAC1OAMIXERINNODE,Air,1
 Node,242,SERVICEBUREAUWINDAC2OAMIXERINNODE,Air,1
 Node,243,SERVICEBUREAUWINDAC3OAMIXERINNODE,Air,1
 Node,244,SERVICEBUREAUWINDAC4OAMIXERINNODE,Air,1
 Node,245,ACCWINDAC1OAMIXERINNODE,Air,1
 Node,246,ACCWINDAC2OAMIXERINNODE,Air,1
 Node,247,FINEARTSDEPTWINDAC1OAMIXERINNODE,Air,1
 Node,248,FINEARTSDEPTWINDAC2OAMIXERINNODE,Air,1
 Node,249,FINEARTSFACULTYWINDAC1OAMIXERINNODE,Air,1
 Node,250,FINEARTSFACULTYWINDAC2OAMIXERINNODE,Air,1
 Node,251,ARCHIFACULTYWINDAC1OAMIXERINNODE,Air,1
 Node,252,ARCHIFACULTYWINDAC2OAMIXERINNODE,Air,1
 Node,253,ARCHIFACULTYWINDAC3OAMIXERINNODE,Air,1
 Node,254,ARCHIDEPTWINDAC1OAMIXERINNODE,Air,1
 Node,255,ARCHIDEPTWINDAC2OAMIXERINNODE,Air,1
 Node,256,DEANSECWINDAC1OAMIXERINNODE,Air,1
 Node,257,SAFADCONFWINDAC1OAMIXERINNODE,Air,1
 Node,258,DEANOFFICEWINDAC1OAMIXERINNODE,Air,1
 Node,259,AUXOFFICESWINDAC1OAMIXERINNODE,Air,1
 Node,260,AUXOFFICESWINDAC2OAMIXERINNODE,Air,1
 Node,261,AUXOFFICESWINDAC3OAMIXERINNODE,Air,1
 Node,262,IPDWINDAC1OAMIXERINNODE,Air,1
 Node,263,IPDWINDAC2OAMIXERINNODE,Air,1
 Node,264,VPPFWINDAC1OAMIXERINNODE,Air,1
 Node,265,FILMROOMWINDACOAMIXERINNODE,Air,1
 Node,266,LOCKEDROOMWINDACOAMIXERINNODE,Air,1
 Node,267,SERVERROOMWINDACOAMIXERINNODE,Air,1
 Node,268,AF101ZONEAIRNODE,Air,0
 Node,269,AF101ZONERETURNAIRNODE,Air,0
 Node,270,AF102ZONEAIRNODE,Air,0
 Node,271,AF102ZONERETURNAIRNODE,Air,0
 Node,272,AF103ZONEAIRNODE,Air,0
 Node,273,AF103ZONERETURNAIRNODE,Air,0
 Node,274,AF104ZONEAIRNODE,Air,0
 Node,275,AF104ZONERETURNAIRNODE,Air,0
 Node,276,AF109AZONEAIRNODE,Air,0
 Node,277,AF109AZONERETURNAIRNODE,Air,0
 Node,278,AF109BZONEAIRNODE,Air,0
 Node,279,AF109BZONERETURNAIRNODE,Air,0
 Node,280,AF110ZONEAIRNODE,Air,0
 Node,281,AF110ZONERETURNAIRNODE,Air,0
 Node,282,AF111ZONEAIRNODE,Air,0
 Node,283,AF111ZONERETURNAIRNODE,Air,0
 Node,284,AF207ZONEAIRNODE,Air,0
 Node,285,AF207ZONERETURNAIRNODE,Air,0
 Node,286,AF208ZONEAIRNODE,Air,0
 Node,287,AF208ZONERETURNAIRNODE,Air,0
 Node,288,AF209ZONEAIRNODE,Air,0
 Node,289,AF209ZONERETURNAIRNODE,Air,0
 Node,290,AF210ZONEAIRNODE,Air,0
 Node,291,AF210ZONERETURNAIRNODE,Air,0
 Node,292,AF211ZONEAIRNODE,Air,0
 Node,293,AF211ZONERETURNAIRNODE,Air,0
 Node,294,AF212ZONEAIRNODE,Air,0
 Node,295,AF212ZONERETURNAIRNODE,Air,0
 Node,296,AF213ZONEAIRNODE,Air,0
 Node,297,AF213ZONERETURNAIRNODE,Air,0
 Node,298,AF214ZONEAIRNODE,Air,0
 Node,299,AF214ZONERETURNAIRNODE,Air,0
 Node,300,AF215ZONEAIRNODE,Air,0
 Node,301,AF215ZONERETURNAIRNODE,Air,0
 Node,302,AF304ZONEAIRNODE,Air,0
 Node,303,AF304ZONERETURNAIRNODE,Air,0
 Node,304,AF306ZONEAIRNODE,Air,0
 Node,305,AF306ZONERETURNAIRNODE,Air,0
 Node,306,AF1B12AZONEAIRNODE,Air,0
 Node,307,AF1B12AZONERETURNAIRNODE,Air,0
 Node,308,AF1B12BZONEAIRNODE,Air,0
 Node,309,AF1B12BZONERETURNAIRNODE,Air,0
 Node,310,AF1B12CZONEAIRNODE,Air,0
 Node,311,AF1B12CZONERETURNAIRNODE,Air,0
 Node,312,AF1B12DZONEAIRNODE,Air,0
 Node,313,AF1B12DZONERETURNAIRNODE,Air,0
 Node,314,AF1B12EZONEAIRNODE,Air,0
 Node,315,AF1B12EZONERETURNAIRNODE,Air,0
 Node,316,AF1B12FZONEAIRNODE,Air,0
 Node,317,AF1B12FZONERETURNAIRNODE,Air,0
 Node,318,AFCB1ZONEAIRNODE,Air,0
 Node,319,AFCB1ZONERETURNAIRNODE,Air,0
 Node,320,AFCB2ZONEAIRNODE,Air,0
 Node,321,AFCB2ZONERETURNAIRNODE,Air,0
 Node,322,AFCB3ZONEAIRNODE,Air,0
 Node,323,AFCB3ZONERETURNAIRNODE,Air,0
 Node,324,AFCB4ZONEAIRNODE,Air,0
 Node,325,AFCB4ZONERETURNAIRNODE,Air,0
 Node,326,CLINICZONEAIRNODE,Air,0
 Node,327,CLINICZONERETURNAIRNODE,Air,0
 Node,328,COUNSELORZONEAIRNODE,Air,0
 Node,329,COUNSELORZONERETURNAIRNODE,Air,0
 Node,330,GUIDANCEOFFICEZONEAIRNODE,Air,0
 Node,331,GUIDANCEOFFICEZONERETURNAIRNODE,Air,0
 Node,332,CREATIVEHUBZONEAIRNODE,Air,0
 Node,333,CREATIVEHUBZONERETURNAIRNODE,Air,0
 Node,334,SERVICEBUREAUZONEAIRNODE,Air,0
 Node,335,SERVICEBUREAUZONERETURNAIRNODE,Air,0
 Node,336,ACCZONEAIRNODE,Air,0
 Node,337,ACCZONERETURNAIRNODE,Air,0
 Node,338,FINEARTSDEPTZONEAIRNODE,Air,0
 Node,339,FINEARTSDEPTZONERETURNAIRNODE,Air,0
 Node,340,FINEARTSFACULTYZONEAIRNODE,Air,0
 Node,341,FINEARTSFACULTYZONERETURNAIRNODE,Air,0
 Node,342,ARCHIFACULTYZONEAIRNODE,Air,0
 Node,343,ARCHIFACULTYZONERETURNAIRNODE,Air,0
 Node,344,ARCHIDEPTZONEAIRNODE,Air,0
 Node,345,ARCHIDEPTZONERETURNAIRNODE,Air,0
 Node,346,DEANSECZONEAIRNODE,Air,0
 Node,347,DEANSECZONERETURNAIRNODE,Air,0
 Node,348,SAFADCONFZONEAIRNODE,Air,0
 Node,349,SAFADCONFZONERETURNAIRNODE,Air,0
 Node,350,DEANOFFICEZONEAIRNODE,Air,0
 Node,351,DEANOFFICEZONERETURNAIRNODE,Air,0
 Node,352,AUXOFFICESZONEAIRNODE,Air,0
 Node,353,AUXOFFICESZONERETURNAIRNODE,Air,0
 Node,354,IPDZONEAIRNODE,Air,0
 Node,355,IPDZONERETURNAIRNODE,Air,0
 Node,356,VPPFZONEAIRNODE,Air,0
 Node,357,VPPFZONERETURNAIRNODE,Air,0
 Node,358,FILMROOMZONEAIRNODE,Air,0
 Node,359,FILMROOMZONERETURNAIRNODE,Air,0
 Node,360,FILMROOMWINDACAIROUTLETNODE,Air,2
 Node,361,FILMROOMWINDACAIRINLETNODE,Air,2
 Node,362,SERVERROOMZONEAIRNODE,Air,0
 Node,363,SERVERROOMZONERETURNAIRNODE,Air,0
 Node,364,SERVERROOMWINDACAIROUTLETNODE,Air,2
 Node,365,SERVERROOMWINDACAIRINLETNODE,Air,2
 Node,366,LOCKEDROOMZONEAIRNODE,Air,0
 Node,367,LOCKEDROOMZONERETURNAIRNODE,Air,0
 Node,368,LOCKEDROOMAIROUTLETNODE,Air,2
 Node,369,LOCKEDROOMWINDACAIRINLETNODE,Air,2
 Node,370,AF101WINDAC1OAMIXERAIROUTLETNODE,Air,1
 Node,371,AF101WINDAC1OAMIXEREXHNODE,Air,0
 Node,372,AF101WINDAC2OAMIXERAIROUTLETNODE,Air,1
 Node,373,AF101WINDAC2OAMIXEREXHNODE,Air,0
 Node,374,AF102WINDAC1OAMIXERAIROUTLETNODE,Air,1
 Node,375,AF102WINDAC1OAMIXEREXHNODE,Air,0
 Node,376,AF102WINDAC2OAMIXERAIROUTLETNODE,Air,1
 Node,377,AF102WINDAC2OAMIXEREXHNODE,Air,0
 Node,378,AF103WINDAC1OAMIXERAIROUTLETNODE,Air,1
 Node,379,AF103WINDAC1OAMIXEREXHNODE,Air,0
 Node,380,AF103WINDAC2OAMIXERAIROUTLETNODE,Air,1
 Node,381,AF103WINDAC2OAMIXEREXHNODE,Air,0
 Node,382,AF104WINDAC1OAMIXERAIROUTLETNODE,Air,1
 Node,383,AF104WINDAC1OAMIXEREXHNODE,Air,0
 Node,384,AF104WINDAC2OAMIXERAIROUTLETNODE,Air,1
 Node,385,AF104WINDAC2OAMIXEREXHNODE,Air,0
 Node,386,AF109AWINDAC1OAMIXERAIROUTLETNODE,Air,1
 Node,387,AF109AWINDAC1OAMIXEREXHNODE,Air,0
 Node,388,AF109AWINDAC2OAMIXERAIROUTLETNODE,Air,1
 Node,389,AF109AWINDAC2OAMIXEREXHNODE,Air,0
 Node,390,AF109BWINDAC1OAMIXERAIROUTLETNODE,Air,1
 Node,391,AF109BWINDAC1OAMIXEREXHNODE,Air,0
 Node,392,AF109BWINDAC2OAMIXERAIROUTLETNODE,Air,1
 Node,393,AF109BWINDAC2OAMIXEREXHNODE,Air,0
 Node,394,AF110WINDAC1OAMIXERAIROUTLETNODE,Air,1
 Node,395,AF110WINDAC1OAMIXEREXHNODE,Air,0
 Node,396,AF110WINDAC2OAMIXERAIROUTLETNODE,Air,1
 Node,397,AF110WINDAC2OAMIXEREXHNODE,Air,0
 Node,398,AF111WINDAC1OAMIXERAIROUTLETNODE,Air,1
 Node,399,AF111WINDAC1OAMIXEREXHNODE,Air,0
 Node,400,AF111WINDAC2OAMIXERAIROUTLETNODE,Air,1
 Node,401,AF111WINDAC2OAMIXEREXHNODE,Air,0
 Node,402,AF207WINDAC1OAMIXERAIROUTLETNODE,Air,1
 Node,403,AF207WINDAC1OAMIXEREXHNODE,Air,0
 Node,404,AF207WINDAC2OAMIXERAIROUTLETNODE,Air,1
 Node,405,AF207WINDAC2OAMIXEREXHNODE,Air,0
 Node,406,AF208WINDAC1OAMIXERAIROUTLETNODE,Air,1
 Node,407,AF208WINDAC1OAMIXEREXHNODE,Air,0
 Node,408,AF208WINDAC2OAMIXERAIROUTLETNODE,Air,1
 Node,409,AF208WINDAC2OAMIXEREXHNODE,Air,0
 Node,410,AF209WINDAC1OAMIXERAIROUTLETNODE,Air,1
 Node,411,AF209WINDAC1OAMIXEREXHNODE,Air,0
 Node,412,AF209WINDAC2OAMIXERAIROUTLETNODE,Air,1
 Node,413,AF209WINDAC2OAMIXEREXHNODE,Air,0
 Node,414,AF210WINDAC1OAMIXERAIROUTLETNODE,Air,1
 Node,415,AF210WINDAC1OAMIXEREXHNODE,Air,0
 Node,416,AF210WINDAC2OAMIXERAIROUTLETNODE,Air,1
 Node,417,AF210WINDAC2OAMIXEREXHNODE,Air,0
 Node,418,AF211WINDAC1OAMIXERAIROUTLETNODE,Air,1
 Node,419,AF211WINDAC1OAMIXEREXHNODE,Air,0
 Node,420,AF211WINDAC2OAMIXERAIROUTLETNODE,Air,1
 Node,421,AF211WINDAC2OAMIXEREXHNODE,Air,0
 Node,422,AF212WINDAC1OAMIXERAIROUTLETNODE,Air,1
 Node,423,AF212WINDAC1OAMIXEREXHNODE,Air,0
 Node,424,AF212WINDAC2OAMIXERAIROUTLETNODE,Air,1
 Node,425,AF212WINDAC2OAMIXEREXHNODE,Air,0
 Node,426,AF213WINDAC1OAMIXERAIROUTLETNODE,Air,1
 Node,427,AF213WINDAC1OAMIXEREXHNODE,Air,0
 Node,428,AF213WINDAC2OAMIXERAIROUTLETNODE,Air,1
 Node,429,AF213WINDAC2OAMIXEREXHNODE,Air,0
 Node,430,AF214WINDAC1OAMIXERAIROUTLETNODE,Air,1
 Node,431,AF214WINDAC1OAMIXEREXHNODE,Air,0
 Node,432,AF214WINDAC2OAMIXERAIROUTLETNODE,Air,1
 Node,433,AF214WINDAC2OAMIXEREXHNODE,Air,0
 Node,434,AF215WINDAC1OAMIXERAIROUTLETNODE,Air,1
 Node,435,AF215WINDAC1OAMIXEREXHNODE,Air,0
 Node,436,AF215WINDAC2OAMIXERAIROUTLETNODE,Air,1
 Node,437,AF215WINDAC2OAMIXEREXHNODE,Air,0
 Node,438,AF304WINDAC1OAMIXERAIROUTLETNODE,Air,1
 Node,439,AF304WINDAC1OAMIXEREXHNODE,Air,0
 Node,440,AF304WINDAC2OAMIXERAIROUTLETNODE,Air,1
 Node,441,AF304WINDAC2OAMIXEREXHNODE,Air,0
 Node,442,AF306WINDAC1OAMIXERAIROUTLETNODE,Air,1
 Node,443,AF306WINDAC1OAMIXEREXHNODE,Air,0
 Node,444,AF306WINDAC2OAMIXERAIROUTLETNODE,Air,1
 Node,445,AF306WINDAC2OAMIXEREXHNODE,Air,0
 Node,446,AF1B12AWINDAC1OAMIXERAIROUTLETNODE,Air,1
 Node,447,AF1B12AWINDAC1OAMIXEREXHNODE,Air,0
 Node,448,AF1B12AWINDAC2OAMIXERAIROUTLETNODE,Air,1
 Node,449,AF1B12AWINDAC2OAMIXEREXHNODE,Air,0
 Node,450,AF1B12BWINDAC1OAMIXERAIROUTLETNODE,Air,1
 Node,451,AF1B12BWINDAC1OAMIXEREXHNODE,Air,0
 Node,452,AF1B12BWINDAC2OAMIXERAIROUTLETNODE,Air,1
 Node,453,AF1B12BWINDAC2OAMIXEREXHNODE,Air,0
 Node,454,AF1B12CWINDAC1OAMIXERAIROUTLETNODE,Air,1
 Node,455,AF1B12CWINDAC1OAMIXEREXHNODE,Air,0
 Node,456,AF1B12CWINDAC2OAMIXERAIROUTLETNODE,Air,1
 Node,457,AF1B12CWINDAC2OAMIXEREXHNODE,Air,0
 Node,458,AF1B12DWINDAC1OAMIXERAIROUTLETNODE,Air,1
 Node,459,AF1B12DWINDAC1OAMIXEREXHNODE,Air,0
 Node,460,AF1B12DWINDAC2OAMIXERAIROUTLETNODE,Air,1
 Node,461,AF1B12DWINDAC2OAMIXEREXHNODE,Air,0
 Node,462,AF1B12EWINDAC1OAMIXERAIROUTLETNODE,Air,1
 Node,463,AF1B12EWINDAC1OAMIXEREXHNODE,Air,0
 Node,464,AF1B12EWINDAC2OAMIXERAIROUTLETNODE,Air,1
 Node,465,AF1B12EWINDAC2OAMIXEREXHNODE,Air,0
 Node,466,AF1B12FWINDAC1OAMIXERAIROUTLETNODE,Air,1
 Node,467,AF1B12FWINDAC1OAMIXEREXHNODE,Air,0
 Node,468,AF1B12FWINDAC2OAMIXERAIROUTLETNODE,Air,1
 Node,469,AF1B12FWINDAC2OAMIXEREXHNODE,Air,0
 Node,470,AFCB1WINDAC1OAMIXERAIROUTLETNODE,Air,1
 Node,471,AFCB1WINDAC1OAMIXEREXHNODE,Air,0
 Node,472,AFCB1WINDAC2OAMIXERAIROUTLETNODE,Air,1
 Node,473,AFCB1WINDAC2OAMIXEREXHNODE,Air,0
 Node,474,AFCB2WINDAC1OAMIXERAIROUTLETNODE,Air,1
 Node,475,AFCB2WINDAC1OAMIXEREXHNODE,Air,0
 Node,476,AFCB2WINDAC2OAMIXERAIROUTLETNODE,Air,1
 Node,477,AFCB2WINDAC2OAMIXEREXHNODE,Air,0
 Node,478,AFCB3WINDAC1OAMIXERAIROUTLETNODE,Air,1
 Node,479,AFCB3WINDAC1OAMIXEREXHNODE,Air,0
 Node,480,AFCB3WINDAC2OAMIXERAIROUTLETNODE,Air,1
 Node,481,AFCB3WINDAC2OAMIXEREXHNODE,Air,0
 Node,482,AFCB4WINDAC1OAMIXERAIROUTLETNODE,Air,1
 Node,483,AFCB4WINDAC1OAMIXEREXHNODE,Air,0
 Node,484,AFCB4WINDAC2OAMIXERAIROUTLETNODE,Air,1
 Node,485,AFCB4WINDAC2OAMIXEREXHNODE,Air,0
 Node,486,CLINICWINDAC1OAMIXERAIROUTLETNODE,Air,1
 Node,487,CLINICWINDAC1OAMIXEREXHNODE,Air,0
 Node,488,COUNSELORWINDAC1OAMIXERAIROUTLETNODE,Air,1
 Node,489,COUNSELORWINDAC1OAMIXEREXHNODE,Air,0
 Node,490,GUIDANCEOFFICEWINDAC1OAMIXERAIROUTLETNODE,Air,1
 Node,491,GUIDANCEOFFICEWINDAC1OAMIXEREXHNODE,Air,0
 Node,492,CREATIVEHUBWINDAC1OAMIXERAIROUTLETNODE,Air,1
 Node,493,CREATIVEHUBWINDAC1OAMIXEREXHNODE,Air,0
 Node,494,CREATIVEHUBOFFICEWINDAC1OAMIXERAIROUTLETNODE,Air,1
 Node,495,CREATIVEHUBOFFICEWINDAC1OAMIXEREXHNODE,Air,0
 Node,496,DISCUSSIONROOMWINDAC1OAMIXERAIROUTLETNODE,Air,1
 Node,497,DISCUSSIONROOMWINDAC1OAMIXEREXHNODE,Air,0
 Node,498,SERVICEBUREAUWINDAC1OAMIXERAIROUTLETNODE,Air,1
 Node,499,SERVICEBUREAUWINDAC1OAMIXEREXHNODE,Air,0
 Node,500,SERVICEBUREAUWINDAC2OAMIXERAIROUTLETNODE,Air,1
 Node,501,SERVICEBUREAUWINDAC2OAMIXEREXHNODE,Air,0
 Node,502,SERVICEBUREAUWINDAC3OAMIXERAIROUTLETNODE,Air,1
 Node,503,SERVICEBUREAUWINDAC3OAMIXEREXHNODE,Air,0
 Node,504,SERVICEBUREAUWINDAC4OAMIXERAIROUTLETNODE,Air,1
 Node,505,SERVICEBUREAUWINDAC4OAMIXEREXHNODE,Air,0
 Node,506,ACCWINDAC1OAMIXERAIROUTLETNODE,Air,1
 Node,507,ACCWINDAC1OAMIXEREXHNODE,Air,0
 Node,508,ACCWINDAC2OAMIXERAIROUTLETNODE,Air,1
 Node,509,ACCWINDAC2OAMIXEREXHNODE,Air,0
 Node,510,FINEARTSDEPTWINDAC1OAMIXERAIROUTLETNODE,Air,1
 Node,511,FINEARTSDEPTWINDAC1OAMIXEREXHNODE,Air,0
 Node,512,FINEARTSDEPTWINDAC2OAMIXERAIROUTLETNODE,Air,1
 Node,513,FINEARTSDEPTWINDAC2OAMIXEREXHNODE,Air,0
 Node,514,FINEARTSFACULTYWINDAC1OAMIXERAIROUTLETNODE,Air,1
 Node,515,FINEARTSFACULTYWINDAC1OAMIXEREXHNODE,Air,0
 Node,516,FINEARTSFACULTYWINDAC2OAMIXERAIROUTLETNODE,Air,1
 Node,517,FINEARTSFACULTYWINDAC2OAMIXEREXHNODE,Air,0
 Node,518,ARCHIFACULTYWINDAC1OAMIXERAIROUTLETNODE,Air,1
 Node,519,ARCHIFACULTYWINDAC1OAMIXEREXHNODE,Air,0
 Node,520,ARCHIFACULTYWINDAC2OAMIXERAIROUTLETNODE,Air,1
 Node,521,ARCHIFACULTYWINDAC2OAMIXEREXHNODE,Air,0
 Node,522,ARCHIFACULTYWINDAC3OAMIXERAIROUTLETNODE,Air,1
 Node,523,ARCHIFACULTYWINDAC3OAMIXEREXHNODE,Air,0
 Node,524,ARCHIDEPTWINDAC1OAMIXERAIROUTLETNODE,Air,1
 Node,525,ARCHIDEPTWINDAC1OAMIXEREXHNODE,Air,0
 Node,526,ARCHIDEPTWINDAC2OAMIXERAIROUTLETNODE,Air,1
 Node,527,ARCHIDEPTWINDAC2OAMIXEREXHNODE,Air,0
 Node,528,DEANSECWINDAC1OAMIXERAIROUTLETNODE,Air,1
 Node,529,DEANSECWINDAC1OAMIXEREXHNODE,Air,0
 Node,530,SAFADCONFWINDAC1OAMIXERAIROUTLETNODE,Air,1
 Node,531,SAFADCONFWINDAC1OAMIXEREXHNODE,Air,0
 Node,532,DEANOFFICEWINDAC1OAMIXERAIROUTLETNODE,Air,1
 Node,533,DEANOFFICEWINDAC1OAMIXEREXHNODE,Air,0
 Node,534,AUXOFFICESWINDAC1OAMIXERAIROUTLETNODE,Air,1
 Node,535,AUXOFFICESWINDAC1OAMIXEREXHNODE,Air,0
 Node,536,AUXOFFICESWINDAC2OAMIXERAIROUTLETNODE,Air,1
 Node,537,AUXOFFICESWINDAC2OAMIXEREXHNODE,Air,0
 Node,538,AUXOFFICESWINDAC3OAMIXERAIROUTLETNODE,Air,1
 Node,539,AUXOFFICESWINDAC3OAMIXEREXHNODE,Air,0
 Node,540,IPDWINDAC1OAMIXERAIROUTLETNODE,Air,1
 Node,541,IPDWINDAC1OAMIXEREXHNODE,Air,0
 Node,542,IPDWINDAC2OAMIXERAIROUTLETNODE,Air,1
 Node,543,IPDWINDAC2OAMIXEREXHNODE,Air,0
 Node,544,VPPFWINDAC1OAMIXERAIROUTLETNODE,Air,1
 Node,545,VPPFWINDAC1OAMIXEREXHNODE,Air,0
 Node,546,FILMROOMWINDACOAMIXERAIROUTLETNODE,Air,1
 Node,547,FILMROOMWINDACOAMIXEREXHNODE,Air,0
 Node,548,SERVERROOMWINDACOAMIXERAIROUTLETNODE,Air,1
 Node,549,SERVERROOMWINDACOAMIXEREXHNODE,Air,0
 Node,550,LOCKEDROOMWINDACOAMIXERAIROUTLETNODE,Air,1
 Node,551,LOCKEDROOMWINDACOAMIXEREXHNODE,Air,0
 Node,552,AF101WINDAC1FANOUTLETNODE,Air,1
 Node,553,AF101WINDAC2FANAIROUTLETNODE,Air,1
 Node,554,AF102WINDAC1FANAIROUTLETNODE,Air,1
 Node,555,AF102WINDAC2FANAIROUTLETNODE,Air,1
 Node,556,AF103WINDAC1FANAIROUTLETNODE,Air,1
 Node,557,AF103WINDAC2FANAIROUTLETNODE,Air,1
 Node,558,AF104WINDAC1FANAIROUTLETNODE,Air,1
 Node,559,AF104WINDAC2FANAIROUTLETNODE,Air,1
 Node,560,AF109AWINDAC1FANAIROUTLETNODE,Air,1
 Node,561,AF109AWINDAC2FANAIROUTLETNODE,Air,1
 Node,562,AF109BWINDAC1FANAIROUTLETNODE,Air,1
 Node,563,AF109BWINDAC2FANAIROUTLETNODE,Air,1
 Node,564,AF110WINDAC1FANAIROUTLETNODE,Air,1
 Node,565,AF110WINDAC2FANAIROUTLETNODE,Air,1
 Node,566,AF111WINDAC1FANAIROUTLETNODE,Air,1
 Node,567,AF111WINDAC2FANAIROUTLETNODE,Air,1
 Node,568,AF207WINDAC1FANAIROUTLETNODE,Air,1
 Node,569,AF207WINDAC2FANAIROUTLETNODE,Air,1
 Node,570,AF208WINDAC1FANAIROUTLETNODE,Air,1
 Node,571,AF208WINDAC2FANAIROUTLETNODE,Air,1
 Node,572,AF209WINDAC1FANAIROUTLETNODE,Air,1
 Node,573,AF209WINDAC2FANAIROUTLETNODE,Air,1
 Node,574,AF210WINDAC1FANAIROUTLETNODE,Air,1
 Node,575,AF210WINDAC2FANAIROUTLETNODE,Air,1
 Node,576,AF211WINDAC1FANAIROUTLETNODE,Air,1
 Node,577,AF211WINDAC2FANAIROUTLETNODE,Air,1
 Node,578,AF212WINDAC1FANAIROUTLETNODE,Air,1
 Node,579,AF212WINDAC2FANAIROUTLETNODE,Air,1
 Node,580,AF213WINDAC1FANAIROUTLETNODE,Air,1
 Node,581,AF213WINDAC2FANAIROUTLETNODE,Air,1
 Node,582,AF214WINDAC1FANAIROUTLETNODE,Air,1
 Node,583,AF214WINDAC2FANAIROUTLETNODE,Air,1
 Node,584,AF215WINDAC1FANAIROUTLETNODE,Air,1
 Node,585,AF215WINDAC2FANAIROUTLETNODE,Air,1
 Node,586,AF304WINDAC1FANAIROUTLETNODE,Air,1
 Node,587,AF304WINDAC2FANAIROUTLETNODE,Air,1
 Node,588,AF306WINDAC1FANAIROUTLETNODE,Air,1
 Node,589,AF306WINDAC2FANAIROUTLETNODE,Air,1
 Node,590,AF1B12AWINDAC1FANAIROUTLETNODE,Air,1
 Node,591,AF1B12AWINDAC2FANAIROUTLETNODE,Air,1
 Node,592,AF1B12BWINDAC1FANAIROUTLETNODE,Air,1
 Node,593,AF1B12BWINDAC2FANAIROUTLETNODE,Air,1
 Node,594,AF1B12CWINDAC1FANAIROUTLETNODE,Air,1
 Node,595,AF1B12CWINDAC2FANAIROUTLETNODE,Air,1
 Node,596,AF1B12DWINDAC1FANAIROUTLETNODE,Air,1
 Node,597,AF1B12DWINDAC2FANAIROUTLETNODE,Air,1
 Node,598,AF1B12EWINDAC1FANAIROUTLETNODE,Air,1
 Node,599,AF1B12EWINDAC2FANAIROUTLETNODE,Air,1
 Node,600,AF1B12FWINDAC1FANAIROUTLETNODE,Air,1
 Node,601,AF1B12FWINDAC2FANAIROUTLETNODE,Air,1
 Node,602,AFCB1WINDAC1FANAIROUTLETNODE,Air,1
 Node,603,AFCB1WINDAC2FANAIROUTLETNODE,Air,1
 Node,604,AFCB2WINDAC1FANAIROUTLETNODE,Air,1
 Node,605,AFCB2WINDAC2FANAIROUTLETNODE,Air,1
 Node,606,AFCB3WINDAC1FANAIROUTLETNODE,Air,1
 Node,607,AFCB3WINDAC2FANAIROUTLETNODE,Air,1
 Node,608,AFCB4WINDAC1FANAIROUTLETNODE,Air,1
 Node,609,AFCB4WINDAC2FANAIROUTLETNODE,Air,1
 Node,610,CLINICWINDAC1FANAIROUTLETNODE,Air,1
 Node,611,COUNSELORWINDAC1FANAIROUTLETNODE,Air,1
 Node,612,GUIDANCEOFFICEWINDAC1FANAIROUTLETNODE,Air,1
 Node,613,CREATIVEHUBWINDAC1FANAIROUTLETNODE,Air,1
 Node,614,CREATIVEHUBOFFICEWINDAC1FANAIROUTLETNODE,Air,1
 Node,615,DISCUSSIONROOMWINDAC1FANAIROUTLETNODE,Air,1
 Node,616,SERVICEBUREAUWINDAC1FANAIROUTLETNODE,Air,1
 Node,617,SERVICEBUREAUWINDAC2FANAIROUTLETNODE,Air,1
 Node,618,SERVICEBUREAUWINDAC3FANAIROUTLETNODE,Air,1
 Node,619,SERVICEBUREAUWINDAC4FANAIROUTLETNODE,Air,1
 Node,620,ACCWINDAC1FANAIROUTLETNODE,Air,1
 Node,621,ACCWINDAC2FANAIROUTLETNODE,Air,1
 Node,622,FINEARTSDEPTWINDAC1FANAIROUTLETNODE,Air,1
 Node,623,FINEARTSDEPTWINDAC2FANAIROUTLETNODE,Air,1
 Node,624,FINEARTSFACULTYWINDAC1FANAIROUTLETNODE,Air,1
 Node,625,FINEARTSFACULTYWINDAC2FANAIROUTLETNODE,Air,1
 Node,626,ARCHIFACULTYWINDAC1FANAIROUTLETNODE,Air,1
 Node,627,ARCHIFACULTYWINDAC2FANAIROUTLETNODE,Air,1
 Node,628,ARCHIFACULTYWINDAC3FANAIROUTLETNODE,Air,1
 Node,629,ARCHIDEPTWINDAC1FANAIROUTLETNODE,Air,1
 Node,630,ARCHIDEPTWINDAC2FANAIROUTLETNODE,Air,1
 Node,631,DEANSECWINDAC1FANAIROUTLETNODE,Air,1
 Node,632,SAFADCONFWINDAC1FANAIROUTLETNODE,Air,1
 Node,633,DEANOFFICEWINDAC1FANAIROUTLETNODE,Air,1
 Node,634,AUXOFFICESWINDAC1FANAIROUTLETNODE,Air,1
 Node,635,AUXOFFICESWINDAC2FANAIROUTLETNODE,Air,1
 Node,636,AUXOFFICESWINDAC3FANAIROUTLETNODE,Air,1
 Node,637,IPDWINDAC1FANAIROUTLETNODE,Air,1
 Node,638,IPDWINDAC2FANAIROUTLETNODE,Air,1
 Node,639,VPPFWINDAC1FANAIROUTLETNODE,Air,1
 Node,640,FILMROOMWINDACFANAIROUTLETNODE,Air,1
 Node,641,SERVERROOMWINDACFANAIROUTLETNODE,Air,1
 Node,642,LOCKEDROOMWINDACFANAIROUTLETNODE,Air,1
! ===============================================================
! Suspicious nodes have 0 references.  It is normal for some nodes, however.
! Listing nodes with 0 references (culled from previous list):
! <Suspicious Node>,<NodeNumber>,<Node Name>,<Node Fluid Type>,<# Times Node Referenced After Definition>
 Suspicious Node,268,AF101ZONEAIRNODE,Air,0
 Suspicious Node,269,AF101ZONERETURNAIRNODE,Air,0
 Suspicious Node,270,AF102ZONEAIRNODE,Air,0
 Suspicious Node,271,AF102ZONERETURNAIRNODE,Air,0
 Suspicious Node,272,AF103ZONEAIRNODE,Air,0
 Suspicious Node,273,AF103ZONERETURNAIRNODE,Air,0
 Suspicious Node,274,AF104ZONEAIRNODE,Air,0
 Suspicious Node,275,AF104ZONERETURNAIRNODE,Air,0
 Suspicious Node,276,AF109AZONEAIRNODE,Air,0
 Suspicious Node,277,AF109AZONERETURNAIRNODE,Air,0
 Suspicious Node,278,AF109BZONEAIRNODE,Air,0
 Suspicious Node,279,AF109BZONERETURNAIRNODE,Air,0
 Suspicious Node,280,AF110ZONEAIRNODE,Air,0
 Suspicious Node,281,AF110ZONERETURNAIRNODE,Air,0
 Suspicious Node,282,AF111ZONEAIRNODE,Air,0
 Suspicious Node,283,AF111ZONERETURNAIRNODE,Air,0
 Suspicious Node,284,AF207ZONEAIRNODE,Air,0
 Suspicious Node,285,AF207ZONERETURNAIRNODE,Air,0
 Suspicious Node,286,AF208ZONEAIRNODE,Air,0
 Suspicious Node,287,AF208ZONERETURNAIRNODE,Air,0
 Suspicious Node,288,AF209ZONEAIRNODE,Air,0
 Suspicious Node,289,AF209ZONERETURNAIRNODE,Air,0
 Suspicious Node,290,AF210ZONEAIRNODE,Air,0
 Suspicious Node,291,AF210ZONERETURNAIRNODE,Air,0
 Suspicious Node,292,AF211ZONEAIRNODE,Air,0
 Suspicious Node,293,AF211ZONERETURNAIRNODE,Air,0
 Suspicious Node,294,AF212ZONEAIRNODE,Air,0
 Suspicious Node,295,AF212ZONERETURNAIRNODE,Air,0
 Suspicious Node,296,AF213ZONEAIRNODE,Air,0
 Suspicious Node,297,AF213ZONERETURNAIRNODE,Air,0
 Suspicious Node,298,AF214ZONEAIRNODE,Air,0
 Suspicious Node,299,AF214ZONERETURNAIRNODE,Air,0
 Suspicious Node,300,AF215ZONEAIRNODE,Air,0
 Suspicious Node,301,AF215ZONERETURNAIRNODE,Air,0
 Suspicious Node,302,AF304ZONEAIRNODE,Air,0
 Suspicious Node,303,AF304ZONERETURNAIRNODE,Air,0
 Suspicious Node,304,AF306ZONEAIRNODE,Air,0
 Suspicious Node,305,AF306ZONERETURNAIRNODE,Air,0
 Suspicious Node,306,AF1B12AZONEAIRNODE,Air,0
 Suspicious Node,307,AF1B12AZONERETURNAIRNODE,Air,0
 Suspicious Node,308,AF1B12BZONEAIRNODE,Air,0
 Suspicious Node,309,AF1B12BZONERETURNAIRNODE,Air,0
 Suspicious Node,310,AF1B12CZONEAIRNODE,Air,0
 Suspicious Node,311,AF1B12CZONERETURNAIRNODE,Air,0
 Suspicious Node,312,AF1B12DZONEAIRNODE,Air,0
 Suspicious Node,313,AF1B12DZONERETURNAIRNODE,Air,0
 Suspicious Node,314,AF1B12EZONEAIRNODE,Air,0
 Suspicious Node,315,AF1B12EZONERETURNAIRNODE,Air,0
 Suspicious Node,316,AF1B12FZONEAIRNODE,Air,0
 Suspicious Node,317,AF1B12FZONERETURNAIRNODE,Air,0
 Suspicious Node,318,AFCB1ZONEAIRNODE,Air,0
 Suspicious Node,319,AFCB1ZONERETURNAIRNODE,Air,0
 Suspicious Node,320,AFCB2ZONEAIRNODE,Air,0
 Suspicious Node,321,AFCB2ZONERETURNAIRNODE,Air,0
 Suspicious Node,322,AFCB3ZONEAIRNODE,Air,0
 Suspicious Node,323,AFCB3ZONERETURNAIRNODE,Air,0
 Suspicious Node,324,AFCB4ZONEAIRNODE,Air,0
 Suspicious Node,325,AFCB4ZONERETURNAIRNODE,Air,0
 Suspicious Node,326,CLINICZONEAIRNODE,Air,0
 Suspicious Node,327,CLINICZONERETURNAIRNODE,Air,0
 Suspicious Node,328,COUNSELORZONEAIRNODE,Air,0
 Suspicious Node,329,COUNSELORZONERETURNAIRNODE,Air,0
 Suspicious Node,330,GUIDANCEOFFICEZONEAIRNODE,Air,0
 Suspicious Node,331,GUIDANCEOFFICEZONERETURNAIRNODE,Air,0
 Suspicious Node,332,CREATIVEHUBZONEAIRNODE,Air,0
 Suspicious Node,333,CREATIVEHUBZONERETURNAIRNODE,Air,0
 Suspicious Node,334,SERVICEBUREAUZONEAIRNODE,Air,0
 Suspicious Node,335,SERVICEBUREAUZONERETURNAIRNODE,Air,0
 Suspicious Node,336,ACCZONEAIRNODE,Air,0
 Suspicious Node,337,ACCZONERETURNAIRNODE,Air,0
 Suspicious Node,338,FINEARTSDEPTZONEAIRNODE,Air,0
 Suspicious Node,339,FINEARTSDEPTZONERETURNAIRNODE,Air,0
 Suspicious Node,340,FINEARTSFACULTYZONEAIRNODE,Air,0
 Suspicious Node,341,FINEARTSFACULTYZONERETURNAIRNODE,Air,0
 Suspicious Node,342,ARCHIFACULTYZONEAIRNODE,Air,0
 Suspicious Node,343,ARCHIFACULTYZONERETURNAIRNODE,Air,0
 Suspicious Node,344,ARCHIDEPTZONEAIRNODE,Air,0
 Suspicious Node,345,ARCHIDEPTZONERETURNAIRNODE,Air,0
 Suspicious Node,346,DEANSECZONEAIRNODE,Air,0
 Suspicious Node,347,DEANSECZONERETURNAIRNODE,Air,0
 Suspicious Node,348,SAFADCONFZONEAIRNODE,Air,0
 Suspicious Node,349,SAFADCONFZONERETURNAIRNODE,Air,0
 Suspicious Node,350,DEANOFFICEZONEAIRNODE,Air,0
 Suspicious Node,351,DEANOFFICEZONERETURNAIRNODE,Air,0
 Suspicious Node,352,AUXOFFICESZONEAIRNODE,Air,0
 Suspicious Node,353,AUXOFFICESZONERETURNAIRNODE,Air,0
 Suspicious Node,354,IPDZONEAIRNODE,Air,0
 Suspicious Node,355,IPDZONERETURNAIRNODE,Air,0
 Suspicious Node,356,VPPFZONEAIRNODE,Air,0
 Suspicious Node,357,VPPFZONERETURNAIRNODE,Air,0
 Suspicious Node,358,FILMROOMZONEAIRNODE,Air,0
 Suspicious Node,359,FILMROOMZONERETURNAIRNODE,Air,0
 Suspicious Node,362,SERVERROOMZONEAIRNODE,Air,0
 Suspicious Node,363,SERVERROOMZONERETURNAIRNODE,Air,0
 Suspicious Node,366,LOCKEDROOMZONEAIRNODE,Air,0
 Suspicious Node,367,LOCKEDROOMZONERETURNAIRNODE,Air,0
 Suspicious Node,371,AF101WINDAC1OAMIXEREXHNODE,Air,0
 Suspicious Node,373,AF101WINDAC2OAMIXEREXHNODE,Air,0
 Suspicious Node,375,AF102WINDAC1OAMIXEREXHNODE,Air,0
 Suspicious Node,377,AF102WINDAC2OAMIXEREXHNODE,Air,0
 Suspicious Node,379,AF103WINDAC1OAMIXEREXHNODE,Air,0
 Suspicious Node,381,AF103WINDAC2OAMIXEREXHNODE,Air,0
 Suspicious Node,383,AF104WINDAC1OAMIXEREXHNODE,Air,0
 Suspicious Node,385,AF104WINDAC2OAMIXEREXHNODE,Air,0
 Suspicious Node,387,AF109AWINDAC1OAMIXEREXHNODE,Air,0
 Suspicious Node,389,AF109AWINDAC2OAMIXEREXHNODE,Air,0
 Suspicious Node,391,AF109BWINDAC1OAMIXEREXHNODE,Air,0
 Suspicious Node,393,AF109BWINDAC2OAMIXEREXHNODE,Air,0
 Suspicious Node,395,AF110WINDAC1OAMIXEREXHNODE,Air,0
 Suspicious Node,397,AF110WINDAC2OAMIXEREXHNODE,Air,0
 Suspicious Node,399,AF111WINDAC1OAMIXEREXHNODE,Air,0
 Suspicious Node,401,AF111WINDAC2OAMIXEREXHNODE,Air,0
 Suspicious Node,403,AF207WINDAC1OAMIXEREXHNODE,Air,0
 Suspicious Node,405,AF207WINDAC2OAMIXEREXHNODE,Air,0
 Suspicious Node,407,AF208WINDAC1OAMIXEREXHNODE,Air,0
 Suspicious Node,409,AF208WINDAC2OAMIXEREXHNODE,Air,0
 Suspicious Node,411,AF209WINDAC1OAMIXEREXHNODE,Air,0
 Suspicious Node,413,AF209WINDAC2OAMIXEREXHNODE,Air,0
 Suspicious Node,415,AF210WINDAC1OAMIXEREXHNODE,Air,0
 Suspicious Node,417,AF210WINDAC2OAMIXEREXHNODE,Air,0
 Suspicious Node,419,AF211WINDAC1OAMIXEREXHNODE,Air,0
 Suspicious Node,421,AF211WINDAC2OAMIXEREXHNODE,Air,0
 Suspicious Node,423,AF212WINDAC1OAMIXEREXHNODE,Air,0
 Suspicious Node,425,AF212WINDAC2OAMIXEREXHNODE,Air,0
 Suspicious Node,427,AF213WINDAC1OAMIXEREXHNODE,Air,0
 Suspicious Node,429,AF213WINDAC2OAMIXEREXHNODE,Air,0
 Suspicious Node,431,AF214WINDAC1OAMIXEREXHNODE,Air,0
 Suspicious Node,433,AF214WINDAC2OAMIXEREXHNODE,Air,0
 Suspicious Node,435,AF215WINDAC1OAMIXEREXHNODE,Air,0
 Suspicious Node,437,AF215WINDAC2OAMIXEREXHNODE,Air,0
 Suspicious Node,439,AF304WINDAC1OAMIXEREXHNODE,Air,0
 Suspicious Node,441,AF304WINDAC2OAMIXEREXHNODE,Air,0
 Suspicious Node,443,AF306WINDAC1OAMIXEREXHNODE,Air,0
 Suspicious Node,445,AF306WINDAC2OAMIXEREXHNODE,Air,0
 Suspicious Node,447,AF1B12AWINDAC1OAMIXEREXHNODE,Air,0
 Suspicious Node,449,AF1B12AWINDAC2OAMIXEREXHNODE,Air,0
 Suspicious Node,451,AF1B12BWINDAC1OAMIXEREXHNODE,Air,0
 Suspicious Node,453,AF1B12BWINDAC2OAMIXEREXHNODE,Air,0
 Suspicious Node,455,AF1B12CWINDAC1OAMIXEREXHNODE,Air,0
 Suspicious Node,457,AF1B12CWINDAC2OAMIXEREXHNODE,Air,0
 Suspicious Node,459,AF1B12DWINDAC1OAMIXEREXHNODE,Air,0
 Suspicious Node,461,AF1B12DWINDAC2OAMIXEREXHNODE,Air,0
 Suspicious Node,463,AF1B12EWINDAC1OAMIXEREXHNODE,Air,0
 Suspicious Node,465,AF1B12EWINDAC2OAMIXEREXHNODE,Air,0
 Suspicious Node,467,AF1B12FWINDAC1OAMIXEREXHNODE,Air,0
 Suspicious Node,469,AF1B12FWINDAC2OAMIXEREXHNODE,Air,0
 Suspicious Node,471,AFCB1WINDAC1OAMIXEREXHNODE,Air,0
 Suspicious Node,473,AFCB1WINDAC2OAMIXEREXHNODE,Air,0
 Suspicious Node,475,AFCB2WINDAC1OAMIXEREXHNODE,Air,0
 Suspicious Node,477,AFCB2WINDAC2OAMIXEREXHNODE,Air,0
 Suspicious Node,479,AFCB3WINDAC1OAMIXEREXHNODE,Air,0
 Suspicious Node,481,AFCB3WINDAC2OAMIXEREXHNODE,Air,0
 Suspicious Node,483,AFCB4WINDAC1OAMIXEREXHNODE,Air,0
 Suspicious Node,485,AFCB4WINDAC2OAMIXEREXHNODE,Air,0
 Suspicious Node,487,CLINICWINDAC1OAMIXEREXHNODE,Air,0
 Suspicious Node,489,COUNSELORWINDAC1OAMIXEREXHNODE,Air,0
 Suspicious Node,491,GUIDANCEOFFICEWINDAC1OAMIXEREXHNODE,Air,0
 Suspicious Node,493,CREATIVEHUBWINDAC1OAMIXEREXHNODE,Air,0
 Suspicious Node,495,CREATIVEHUBOFFICEWINDAC1OAMIXEREXHNODE,Air,0
 Suspicious Node,497,DISCUSSIONROOMWINDAC1OAMIXEREXHNODE,Air,0
 Suspicious Node,499,SERVICEBUREAUWINDAC1OAMIXEREXHNODE,Air,0
 Suspicious Node,501,SERVICEBUREAUWINDAC2OAMIXEREXHNODE,Air,0
 Suspicious Node,503,SERVICEBUREAUWINDAC3OAMIXEREXHNODE,Air,0
 Suspicious Node,505,SERVICEBUREAUWINDAC4OAMIXEREXHNODE,Air,0
 Suspicious Node,507,ACCWINDAC1OAMIXEREXHNODE,Air,0
 Suspicious Node,509,ACCWINDAC2OAMIXEREXHNODE,Air,0
 Suspicious Node,511,FINEARTSDEPTWINDAC1OAMIXEREXHNODE,Air,0
 Suspicious Node,513,FINEARTSDEPTWINDAC2OAMIXEREXHNODE,Air,0
 Suspicious Node,515,FINEARTSFACULTYWINDAC1OAMIXEREXHNODE,Air,0
 Suspicious Node,517,FINEARTSFACULTYWINDAC2OAMIXEREXHNODE,Air,0
 Suspicious Node,519,ARCHIFACULTYWINDAC1OAMIXEREXHNODE,Air,0
 Suspicious Node,521,ARCHIFACULTYWINDAC2OAMIXEREXHNODE,Air,0
 Suspicious Node,523,ARCHIFACULTYWINDAC3OAMIXEREXHNODE,Air,0
 Suspicious Node,525,ARCHIDEPTWINDAC1OAMIXEREXHNODE,Air,0
 Suspicious Node,527,ARCHIDEPTWINDAC2OAMIXEREXHNODE,Air,0
 Suspicious Node,529,DEANSECWINDAC1OAMIXEREXHNODE,Air,0
 Suspicious Node,531,SAFADCONFWINDAC1OAMIXEREXHNODE,Air,0
 Suspicious Node,533,DEANOFFICEWINDAC1OAMIXEREXHNODE,Air,0
 Suspicious Node,535,AUXOFFICESWINDAC1OAMIXEREXHNODE,Air,0
 Suspicious Node,537,AUXOFFICESWINDAC2OAMIXEREXHNODE,Air,0
 Suspicious Node,539,AUXOFFICESWINDAC3OAMIXEREXHNODE,Air,0
 Suspicious Node,541,IPDWINDAC1OAMIXEREXHNODE,Air,0
 Suspicious Node,543,IPDWINDAC2OAMIXEREXHNODE,Air,0
 Suspicious Node,545,VPPFWINDAC1OAMIXEREXHNODE,Air,0
 Suspicious Node,547,FILMROOMWINDACOAMIXEREXHNODE,Air,0
 Suspicious Node,549,SERVERROOMWINDACOAMIXEREXHNODE,Air,0
 Suspicious Node,551,LOCKEDROOMWINDACOAMIXEREXHNODE,Air,0
! ===============================================================
! <#Branch Lists>,<Number of Branch Lists>
 #Branch Lists,0
! <Branch List>,<Branch List Count>,<Branch List Name>,<Loop Name>,<Loop Type>,<Number of Branches>
! <Branch>,<Branch Count>,<Branch Name>,<Loop Name>,<Loop Type>,<Branch Inlet Node Name>,<Branch Outlet Node Name>
! ===============================================================
! <#Supply Air Paths>,<Number of Supply Air Paths>
 #Supply Air Paths,0
! <Supply Air Path>,<Supply Air Path Count>,<Supply Air Path Name>,<AirLoopHVAC Name>
! <#Components on Supply Air Path>,<Number of Components>
! <Supply Air Path Component>,<Component Count>,<Component Type>,<Component Name>,<AirLoopHVAC Name>
! <#Outlet Nodes on Supply Air Path Component>,<Number of Nodes>
! <Supply Air Path Component Nodes>,<Node Count>,<Component Type>,<Component Name>,<Inlet Node Name>,<Outlet Node Name>,<AirLoopHVAC Name>
! ===============================================================
! <#Return Air Paths>,<Number of Return Air Paths>
 #Return Air Paths,0
! <Return Air Path>,<Return Air Path Count>,<Return Air Path Name>,<AirLoopHVAC Name>
! <#Components on Return Air Path>,<Number of Components>
! <Return Air Path Component>,<Component Count>,<Component Type>,<Component Name>,<AirLoopHVAC Name>
! <#Inlet Nodes on Return Air Path Component>,<Number of Nodes>
! <Return Air Path Component Nodes>,<Node Count>,<Component Type>,<Component Name>,<Inlet Node Name>,<Outlet Node Name>,<AirLoopHVAC Name>
! ===============================================================
! #Outdoor Air Nodes,<Number of Outdoor Air Nodes>
 #Outdoor Air Nodes,91
! <Outdoor Air Node>,<NodeNumber>,<Node Name>
 Outdoor Air Node,177,AF101WINDAC1OAMIXERINNODE
 Outdoor Air Node,178,AF101WINDAC2OAMIXERINNODE
 Outdoor Air Node,179,AF102WINDAC1OAMIXERINNODE
 Outdoor Air Node,180,AF102WINDAC2OAMIXERINNODE
 Outdoor Air Node,181,AF103WINDAC1OAMIXERINNODE
 Outdoor Air Node,182,AF103WINDAC2OAMIXERINNODE
 Outdoor Air Node,183,AF104WINDAC1OAMIXERINNODE
 Outdoor Air Node,184,AF104WINDAC2OAMIXERINNODE
 Outdoor Air Node,185,AF109AWINDAC1OAMIXERINNODE
 Outdoor Air Node,186,AF109AWINDAC2OAMIXERINNODE
 Outdoor Air Node,187,AF109BWINDAC1OAMIXERINNODE
 Outdoor Air Node,188,AF109BWINDAC2OAMIXERINNODE
 Outdoor Air Node,189,AF110WINDAC1OAMIXERINNODE
 Outdoor Air Node,190,AF110WINDAC2OAMIXERINNODE
 Outdoor Air Node,191,AF111WINDAC1OAMIXERINNODE
 Outdoor Air Node,192,AF111WINDAC2OAMIXERINNODE
 Outdoor Air Node,193,AF207WINDAC1OAMIXERINNODE
 Outdoor Air Node,194,AF207WINDAC2OAMIXERINNODE
 Outdoor Air Node,195,AF208WINDAC1OAMIXERINNODE
 Outdoor Air Node,196,AF208WINDAC2OAMIXERINNODE
 Outdoor Air Node,197,AF209WINDAC1OAMIXERINNODE
 Outdoor Air Node,198,AF209WINDAC2OAMIXERINNODE
 Outdoor Air Node,199,AF210WINDAC1OAMIXERINNODE
 Outdoor Air Node,200,AF210WINDAC2OAMIXERINNODE
 Outdoor Air Node,201,AF211WINDAC1OAMIXERINNODE
 Outdoor Air Node,202,AF211WINDAC2OAMIXERINNODE
 Outdoor Air Node,203,AF212WINDAC1OAMIXERINNODE
 Outdoor Air Node,204,AF212WINDAC2OAMIXERINNODE
 Outdoor Air Node,205,AF213WINDAC1OAMIXERINNODE
 Outdoor Air Node,206,AF213WINDAC2OAMIXERINNODE
 Outdoor Air Node,207,AF214WINDAC1OAMIXERINNODE
 Outdoor Air Node,208,AF214WINDAC2OAMIXERINNODE
 Outdoor Air Node,209,AF215WINDAC1OAMIXERINNODE
 Outdoor Air Node,210,AF215WINDAC2OAMIXERINNODE
 Outdoor Air Node,211,AF304WINDAC1OAMIXERINNODE
 Outdoor Air Node,212,AF304WINDAC2OAMIXERINNODE
 Outdoor Air Node,213,AF306WINDAC1OAMIXERINNODE
 Outdoor Air Node,214,AF306WINDAC2OAMIXERINNODE
 Outdoor Air Node,215,AF1B12AWINDAC1OAMIXERINNODE
 Outdoor Air Node,216,AF1B12AWINDAC2OAMIXERINNODE
 Outdoor Air Node,217,AF1B12BWINDAC1OAMIXERINNODE
 Outdoor Air Node,218,AF1B12BWINDAC2OAMIXERINNODE
 Outdoor Air Node,219,AF1B12CWINDAC1OAMIXERINNODE
 Outdoor Air Node,220,AF1B12CWINDAC2OAMIXERINNODE
 Outdoor Air Node,221,AF1B12DWINDAC1OAMIXERINNODE
 Outdoor Air Node,222,AF1B12DWINDAC2OAMIXERINNODE
 Outdoor Air Node,223,AF1B12EWINDAC1OAMIXERINNODE
 Outdoor Air Node,224,AF1B12EWINDAC2OAMIXERINNODE
 Outdoor Air Node,225,AF1B12FWINDAC1OAMIXERINNODE
 Outdoor Air Node,226,AF1B12FWINDAC2OAMIXERINNODE
 Outdoor Air Node,227,AFCB1WINDAC1OAMIXERINNODE
 Outdoor Air Node,228,AFCB1WINDAC2OAMIXERINNODE
 Outdoor Air Node,229,AFCB2WINDAC1OAMIXERINNODE
 Outdoor Air Node,230,AFCB2WINDAC2OAMIXERINNODE
 Outdoor Air Node,231,AFCB3WINDAC1OAMIXERINNODE
 Outdoor Air Node,232,AFCB3WINDAC2OAMIXERINNODE
 Outdoor Air Node,233,AFCB4WINDAC1OAMIXERINNODE
 Outdoor Air Node,234,AFCB4WINDAC2OAMIXERINNODE
 Outdoor Air Node,235,CLINICWINDAC1OAMIXERINNODE
 Outdoor Air Node,236,COUNSELORWINDAC1OAMIXERINNODE
 Outdoor Air Node,237,GUIDANCEOFFICEWINDAC1OAMIXERINNODE
 Outdoor Air Node,238,CREATIVEHUBWINDAC1OAMIXERINNODE
 Outdoor Air Node,239,CREATIVEHUBOFFICEWINDAC1OAMIXERINNODE
 Outdoor Air Node,240,DISCUSSIONROOMWINDAC1OAMIXERINNODE
 Outdoor Air Node,241,SERVICEBUREAUWINDAC1OAMIXERINNODE
 Outdoor Air Node,242,SERVICEBUREAUWINDAC2OAMIXERINNODE
 Outdoor Air Node,243,SERVICEBUREAUWINDAC3OAMIXERINNODE
 Outdoor Air Node,244,SERVICEBUREAUWINDAC4OAMIXERINNODE
 Outdoor Air Node,245,ACCWINDAC1OAMIXERINNODE
 Outdoor Air Node,246,ACCWINDAC2OAMIXERINNODE
 Outdoor Air Node,247,FINEARTSDEPTWINDAC1OAMIXERINNODE
 Outdoor Air Node,248,FINEARTSDEPTWINDAC2OAMIXERINNODE
 Outdoor Air Node,249,FINEARTSFACULTYWINDAC1OAMIXERINNODE
 Outdoor Air Node,250,FINEARTSFACULTYWINDAC2OAMIXERINNODE
 Outdoor Air Node,251,ARCHIFACULTYWINDAC1OAMIXERINNODE
 Outdoor Air Node,252,ARCHIFACULTYWINDAC2OAMIXERINNODE
 Outdoor Air Node,253,ARCHIFACULTYWINDAC3OAMIXERINNODE
 Outdoor Air Node,254,ARCHIDEPTWINDAC1OAMIXERINNODE
 Outdoor Air Node,255,ARCHIDEPTWINDAC2OAMIXERINNODE
 Outdoor Air Node,256,DEANSECWINDAC1OAMIXERINNODE
 Outdoor Air Node,257,SAFADCONFWINDAC1OAMIXERINNODE
 Outdoor Air Node,258,DEANOFFICEWINDAC1OAMIXERINNODE
 Outdoor Air Node,259,AUXOFFICESWINDAC1OAMIXERINNODE
 Outdoor Air Node,260,AUXOFFICESWINDAC2OAMIXERINNODE
 Outdoor Air Node,261,AUXOFFICESWINDAC3OAMIXERINNODE
 Outdoor Air Node,262,IPDWINDAC1OAMIXERINNODE
 Outdoor Air Node,263,IPDWINDAC2OAMIXERINNODE
 Outdoor Air Node,264,VPPFWINDAC1OAMIXERINNODE
 Outdoor Air Node,265,FILMROOMWINDACOAMIXERINNODE
 Outdoor Air Node,266,LOCKEDROOMWINDACOAMIXERINNODE
 Outdoor Air Node,267,SERVERROOMWINDACOAMIXERINNODE
! ===============================================================
! <#Component Sets>,<Number of Component Sets>
 #Component Sets,273
! <Component Set>,<Component Set Count>,<Parent Object Type>,<Parent Object Name>,<Component Type>,<Component Name>,<Inlet Node ID>,<Outlet Node ID>,<Description>
 Component Set,1,ZONEHVAC:WINDOWAIRCONDITIONER,AF101WINDAC1,OUTDOORAIR:MIXER,AF101WINDAC1OAMIXER,AF101WINDAC1OAMIXERINNODE,AF101WINDAC1OAMIXERAIROUTLETNODE,Air Nodes
 Component Set,2,ZONEHVAC:WINDOWAIRCONDITIONER,AF101WINDAC2,OUTDOORAIR:MIXER,AF101WINDAC2OAMIXER,AF101WINDAC2OAMIXERINNODE,AF101WINDAC2OAMIXERAIROUTLETNODE,Air Nodes
 Component Set,3,ZONEHVAC:WINDOWAIRCONDITIONER,AF102WINDAC1,OUTDOORAIR:MIXER,AF102WINDAC1OAMIXER,AF102WINDAC1OAMIXERINNODE,AF102WINDAC1OAMIXERAIROUTLETNODE,Air Nodes
 Component Set,4,ZONEHVAC:WINDOWAIRCONDITIONER,AF102WINDAC2,OUTDOORAIR:MIXER,AF102WINDAC2OAMIXER,AF102WINDAC2OAMIXERINNODE,AF102WINDAC2OAMIXERAIROUTLETNODE,Air Nodes
 Component Set,5,ZONEHVAC:WINDOWAIRCONDITIONER,AF103WINDAC1,OUTDOORAIR:MIXER,AF103WINDAC1OAMIXER,AF103WINDAC1OAMIXERINNODE,AF103WINDAC1OAMIXERAIROUTLETNODE,Air Nodes
 Component Set,6,ZONEHVAC:WINDOWAIRCONDITIONER,AF103WINDAC2,OUTDOORAIR:MIXER,AF103WINDAC2OAMIXER,AF103WINDAC2OAMIXERINNODE,AF103WINDAC2OAMIXERAIROUTLETNODE,Air Nodes
 Component Set,7,ZONEHVAC:WINDOWAIRCONDITIONER,AF104WINDAC1,OUTDOORAIR:MIXER,AF104WINDAC1OAMIXER,AF104WINDAC1OAMIXERINNODE,AF104WINDAC1OAMIXERAIROUTLETNODE,Air Nodes
 Component Set,8,ZONEHVAC:WINDOWAIRCONDITIONER,AF104WINDAC2,OUTDOORAIR:MIXER,AF104WINDAC2OAMIXER,AF104WINDAC2OAMIXERINNODE,AF104WINDAC2OAMIXERAIROUTLETNODE,Air Nodes
 Component Set,9,ZONEHVAC:WINDOWAIRCONDITIONER,AF109AWINDAC1,OUTDOORAIR:MIXER,AF109AWINDAC1OAMIXER,AF109AWINDAC1OAMIXERINNODE,AF109AWINDAC1OAMIXERAIROUTLETNODE,Air Nodes
 Component Set,10,ZONEHVAC:WINDOWAIRCONDITIONER,AF109AWINDAC2,OUTDOORAIR:MIXER,AF109AWINDAC2OAMIXER,AF109AWINDAC2OAMIXERINNODE,AF109AWINDAC2OAMIXERAIROUTLETNODE,Air Nodes
 Component Set,11,ZONEHVAC:WINDOWAIRCONDITIONER,AF109BWINDAC1,OUTDOORAIR:MIXER,AF109BWINDAC1OAMIXER,AF109BWINDAC1OAMIXERINNODE,AF109BWINDAC1OAMIXERAIROUTLETNODE,Air Nodes
 Component Set,12,ZONEHVAC:WINDOWAIRCONDITIONER,AF109BWINDAC2,OUTDOORAIR:MIXER,AF109BWINDAC2OAMIXER,AF109BWINDAC2OAMIXERINNODE,AF109BWINDAC2OAMIXERAIROUTLETNODE,Air Nodes
 Component Set,13,ZONEHVAC:WINDOWAIRCONDITIONER,AF110WINDAC1,OUTDOORAIR:MIXER,AF110WINDAC1OAMIXER,AF110WINDAC1OAMIXERINNODE,AF110WINDAC1OAMIXERAIROUTLETNODE,Air Nodes
 Component Set,14,ZONEHVAC:WINDOWAIRCONDITIONER,AF110WINDAC2,OUTDOORAIR:MIXER,AF110WINDAC2OAMIXER,AF110WINDAC2OAMIXERINNODE,AF110WINDAC2OAMIXERAIROUTLETNODE,Air Nodes
 Component Set,15,ZONEHVAC:WINDOWAIRCONDITIONER,AF111WINDAC1,OUTDOORAIR:MIXER,AF111WINDAC1OAMIXER,AF111WINDAC1OAMIXERINNODE,AF111WINDAC1OAMIXERAIROUTLETNODE,Air Nodes
 Component Set,16,ZONEHVAC:WINDOWAIRCONDITIONER,AF111WINDAC2,OUTDOORAIR:MIXER,AF111WINDAC2OAMIXER,AF111WINDAC2OAMIXERINNODE,AF111WINDAC2OAMIXERAIROUTLETNODE,Air Nodes
 Component Set,17,ZONEHVAC:WINDOWAIRCONDITIONER,AF207WINDAC1,OUTDOORAIR:MIXER,AF207WINDAC1OAMIXER,AF207WINDAC1OAMIXERINNODE,AF207WINDAC1OAMIXERAIROUTLETNODE,Air Nodes
 Component Set,18,ZONEHVAC:WINDOWAIRCONDITIONER,AF207WINDAC2,OUTDOORAIR:MIXER,AF207WINDAC2OAMIXER,AF207WINDAC2OAMIXERINNODE,AF207WINDAC2OAMIXERAIROUTLETNODE,Air Nodes
 Component Set,19,ZONEHVAC:WINDOWAIRCONDITIONER,AF208WINDAC1,OUTDOORAIR:MIXER,AF208WINDAC1OAMIXER,AF208WINDAC1OAMIXERINNODE,AF208WINDAC1OAMIXERAIROUTLETNODE,Air Nodes
 Component Set,20,ZONEHVAC:WINDOWAIRCONDITIONER,AF208WINDAC2,OUTDOORAIR:MIXER,AF208WINDAC2OAMIXER,AF208WINDAC2OAMIXERINNODE,AF208WINDAC2OAMIXERAIROUTLETNODE,Air Nodes
 Component Set,21,ZONEHVAC:WINDOWAIRCONDITIONER,AF209WINDAC1,OUTDOORAIR:MIXER,AF209WINDAC1OAMIXER,AF209WINDAC1OAMIXERINNODE,AF209WINDAC1OAMIXERAIROUTLETNODE,Air Nodes
 Component Set,22,ZONEHVAC:WINDOWAIRCONDITIONER,AF209WINDAC2,OUTDOORAIR:MIXER,AF209WINDAC2OAMIXER,AF209WINDAC2OAMIXERINNODE,AF209WINDAC2OAMIXERAIROUTLETNODE,Air Nodes
 Component Set,23,ZONEHVAC:WINDOWAIRCONDITIONER,AF210WINDAC1,OUTDOORAIR:MIXER,AF210WINDAC1OAMIXER,AF210WINDAC1OAMIXERINNODE,AF210WINDAC1OAMIXERAIROUTLETNODE,Air Nodes
 Component Set,24,ZONEHVAC:WINDOWAIRCONDITIONER,AF210WINDAC2,OUTDOORAIR:MIXER,AF210WINDAC2OAMIXER,AF210WINDAC2OAMIXERINNODE,AF210WINDAC2OAMIXERAIROUTLETNODE,Air Nodes
 Component Set,25,ZONEHVAC:WINDOWAIRCONDITIONER,AF211WINDAC1,OUTDOORAIR:MIXER,AF211WINDAC1OAMIXER,AF211WINDAC1OAMIXERINNODE,AF211WINDAC1OAMIXERAIROUTLETNODE,Air Nodes
 Component Set,26,ZONEHVAC:WINDOWAIRCONDITIONER,AF211WINDAC2,OUTDOORAIR:MIXER,AF211WINDAC2OAMIXER,AF211WINDAC2OAMIXERINNODE,AF211WINDAC2OAMIXERAIROUTLETNODE,Air Nodes
 Component Set,27,ZONEHVAC:WINDOWAIRCONDITIONER,AF212WINDAC1,OUTDOORAIR:MIXER,AF212WINDAC1OAMIXER,AF212WINDAC1OAMIXERINNODE,AF212WINDAC1OAMIXERAIROUTLETNODE,Air Nodes
 Component Set,28,ZONEHVAC:WINDOWAIRCONDITIONER,AF212WINDAC2,OUTDOORAIR:MIXER,AF212WINDAC2OAMIXER,AF212WINDAC2OAMIXERINNODE,AF212WINDAC2OAMIXERAIROUTLETNODE,Air Nodes
 Component Set,29,ZONEHVAC:WINDOWAIRCONDITIONER,AF213WINDAC1,OUTDOORAIR:MIXER,AF213WINDAC1OAMIXER,AF213WINDAC1OAMIXERINNODE,AF213WINDAC1OAMIXERAIROUTLETNODE,Air Nodes
 Component Set,30,ZONEHVAC:WINDOWAIRCONDITIONER,AF213WINDAC2,OUTDOORAIR:MIXER,AF213WINDAC2OAMIXER,AF213WINDAC2OAMIXERINNODE,AF213WINDAC2OAMIXERAIROUTLETNODE,Air Nodes
 Component Set,31,ZONEHVAC:WINDOWAIRCONDITIONER,AF214WINDAC1,OUTDOORAIR:MIXER,AF214WINDAC1OAMIXER,AF214WINDAC1OAMIXERINNODE,AF214WINDAC1OAMIXERAIROUTLETNODE,Air Nodes
 Component Set,32,ZONEHVAC:WINDOWAIRCONDITIONER,AF214WINDAC2,OUTDOORAIR:MIXER,AF214WINDAC2OAMIXER,AF214WINDAC2OAMIXERINNODE,AF214WINDAC2OAMIXERAIROUTLETNODE,Air Nodes
 Component Set,33,ZONEHVAC:WINDOWAIRCONDITIONER,AF215WINDAC1,OUTDOORAIR:MIXER,AF215WINDAC1OAMIXER,AF215WINDAC1OAMIXERINNODE,AF215WINDAC1OAMIXERAIROUTLETNODE,Air Nodes
 Component Set,34,ZONEHVAC:WINDOWAIRCONDITIONER,AF215WINDAC2,OUTDOORAIR:MIXER,AF215WINDAC2OAMIXER,AF215WINDAC2OAMIXERINNODE,AF215WINDAC2OAMIXERAIROUTLETNODE,Air Nodes
 Component Set,35,ZONEHVAC:WINDOWAIRCONDITIONER,AF304WINDAC1,OUTDOORAIR:MIXER,AF304WINDAC1OAMIXER,AF304WINDAC1OAMIXERINNODE,AF304WINDAC1OAMIXERAIROUTLETNODE,Air Nodes
 Component Set,36,ZONEHVAC:WINDOWAIRCONDITIONER,AF304WINDAC2,OUTDOORAIR:MIXER,AF304WINDAC2OAMIXER,AF304WINDAC2OAMIXERINNODE,AF304WINDAC2OAMIXERAIROUTLETNODE,Air Nodes
 Component Set,37,ZONEHVAC:WINDOWAIRCONDITIONER,AF306WINDAC1,OUTDOORAIR:MIXER,AF306WINDAC1OAMIXER,AF306WINDAC1OAMIXERINNODE,AF306WINDAC1OAMIXERAIROUTLETNODE,Air Nodes
 Component Set,38,ZONEHVAC:WINDOWAIRCONDITIONER,AF306WINDAC2,OUTDOORAIR:MIXER,AF306WINDAC2OAMIXER,AF306WINDAC2OAMIXERINNODE,AF306WINDAC2OAMIXERAIROUTLETNODE,Air Nodes
 Component Set,39,ZONEHVAC:WINDOWAIRCONDITIONER,AF1B12AWINDAC1,OUTDOORAIR:MIXER,AF1B12AWINDAC1OAMIXER,AF1B12AWINDAC1OAMIXERINNODE,AF1B12AWINDAC1OAMIXERAIROUTLETNODE,Air Nodes
 Component Set,40,ZONEHVAC:WINDOWAIRCONDITIONER,AF1B12AWINDAC2,OUTDOORAIR:MIXER,AF1B12AWINDAC2OAMIXER,AF1B12AWINDAC2OAMIXERINNODE,AF1B12AWINDAC2OAMIXERAIROUTLETNODE,Air Nodes
 Component Set,41,ZONEHVAC:WINDOWAIRCONDITIONER,AF1B12BWINDAC1,OUTDOORAIR:MIXER,AF1B12BWINDAC1OAMIXER,AF1B12BWINDAC1OAMIXERINNODE,AF1B12BWINDAC1OAMIXERAIROUTLETNODE,Air Nodes
 Component Set,42,ZONEHVAC:WINDOWAIRCONDITIONER,AF1B12BWINDAC2,OUTDOORAIR:MIXER,AF1B12BWINDAC2OAMIXER,AF1B12BWINDAC2OAMIXERINNODE,AF1B12BWINDAC2OAMIXERAIROUTLETNODE,Air Nodes
 Component Set,43,ZONEHVAC:WINDOWAIRCONDITIONER,AF1B12CWINDAC1,OUTDOORAIR:MIXER,AF1B12CWINDAC1OAMIXER,AF1B12CWINDAC1OAMIXERINNODE,AF1B12CWINDAC1OAMIXERAIROUTLETNODE,Air Nodes
 Component Set,44,ZONEHVAC:WINDOWAIRCONDITIONER,AF1B12CWINDAC2,OUTDOORAIR:MIXER,AF1B12CWINDAC2OAMIXER,AF1B12CWINDAC2OAMIXERINNODE,AF1B12CWINDAC2OAMIXERAIROUTLETNODE,Air Nodes
 Component Set,45,ZONEHVAC:WINDOWAIRCONDITIONER,AF1B12DWINDAC1,OUTDOORAIR:MIXER,AF1B12DWINDAC1OAMIXER,AF1B12DWINDAC1OAMIXERINNODE,AF1B12DWINDAC1OAMIXERAIROUTLETNODE,Air Nodes
 Component Set,46,ZONEHVAC:WINDOWAIRCONDITIONER,AF1B12DWINDAC2,OUTDOORAIR:MIXER,AF1B12DWINDAC2OAMIXER,AF1B12DWINDAC2OAMIXERINNODE,AF1B12DWINDAC2OAMIXERAIROUTLETNODE,Air Nodes
 Component Set,47,ZONEHVAC:WINDOWAIRCONDITIONER,AF1B12EWINDAC1,OUTDOORAIR:MIXER,AF1B12EWINDAC1OAMIXER,AF1B12EWINDAC1OAMIXERINNODE,AF1B12EWINDAC1OAMIXERAIROUTLETNODE,Air Nodes
 Component Set,48,ZONEHVAC:WINDOWAIRCONDITIONER,AF1B12EWINDAC2,OUTDOORAIR:MIXER,AF1B12EWINDAC2OAMIXER,AF1B12EWINDAC2OAMIXERINNODE,AF1B12EWINDAC2OAMIXERAIROUTLETNODE,Air Nodes
 Component Set,49,ZONEHVAC:WINDOWAIRCONDITIONER,AF1B12FWINDAC1,OUTDOORAIR:MIXER,AF1B12FWINDAC1OAMIXER,AF1B12FWINDAC1OAMIXERINNODE,AF1B12FWINDAC1OAMIXERAIROUTLETNODE,Air Nodes
 Component Set,50,ZONEHVAC:WINDOWAIRCONDITIONER,AF1B12FWINDAC2,OUTDOORAIR:MIXER,AF1B12FWINDAC2OAMIXER,AF1B12FWINDAC2OAMIXERINNODE,AF1B12FWINDAC2OAMIXERAIROUTLETNODE,Air Nodes
 Component Set,51,ZONEHVAC:WINDOWAIRCONDITIONER,AFCB1WINDAC1,OUTDOORAIR:MIXER,AFCB1WINDAC1OAMIXER,AFCB1WINDAC1OAMIXERINNODE,AFCB1WINDAC1OAMIXERAIROUTLETNODE,Air Nodes
 Component Set,52,ZONEHVAC:WINDOWAIRCONDITIONER,AFCB1WINDAC2,OUTDOORAIR:MIXER,AFCB1WINDAC2OAMIXER,AFCB1WINDAC2OAMIXERINNODE,AFCB1WINDAC2OAMIXERAIROUTLETNODE,Air Nodes
 Component Set,53,ZONEHVAC:WINDOWAIRCONDITIONER,AFCB2WINDAC1,OUTDOORAIR:MIXER,AFCB2WINDAC1OAMIXER,AFCB2WINDAC1OAMIXERINNODE,AFCB2WINDAC1OAMIXERAIROUTLETNODE,Air Nodes
 Component Set,54,ZONEHVAC:WINDOWAIRCONDITIONER,AFCB2WINDAC2,OUTDOORAIR:MIXER,AFCB2WINDAC2OAMIXER,AFCB2WINDAC2OAMIXERINNODE,AFCB2WINDAC2OAMIXERAIROUTLETNODE,Air Nodes
 Component Set,55,ZONEHVAC:WINDOWAIRCONDITIONER,AFCB3WINDAC1,OUTDOORAIR:MIXER,AFCB3WINDAC1OAMIXER,AFCB3WINDAC1OAMIXERINNODE,AFCB3WINDAC1OAMIXERAIROUTLETNODE,Air Nodes
 Component Set,56,ZONEHVAC:WINDOWAIRCONDITIONER,AFCB3WINDAC2,OUTDOORAIR:MIXER,AFCB3WINDAC2OAMIXER,AFCB3WINDAC2OAMIXERINNODE,AFCB3WINDAC2OAMIXERAIROUTLETNODE,Air Nodes
 Component Set,57,ZONEHVAC:WINDOWAIRCONDITIONER,AFCB4WINDAC1,OUTDOORAIR:MIXER,AFCB4WINDAC1OAMIXER,AFCB4WINDAC1OAMIXERINNODE,AFCB4WINDAC1OAMIXERAIROUTLETNODE,Air Nodes
 Component Set,58,ZONEHVAC:WINDOWAIRCONDITIONER,AFCB4WINDAC2,OUTDOORAIR:MIXER,AFCB4WINDAC2OAMIXER,AFCB4WINDAC2OAMIXERINNODE,AFCB4WINDAC2OAMIXERAIROUTLETNODE,Air Nodes
 Component Set,59,ZONEHVAC:WINDOWAIRCONDITIONER,CLINICWINDAC1,OUTDOORAIR:MIXER,CLINICWINDAC1OAMIXER,CLINICWINDAC1OAMIXERINNODE,CLINICWINDAC1OAMIXERAIROUTLETNODE,Air Nodes
 Component Set,60,ZONEHVAC:WINDOWAIRCONDITIONER,COUNSELORWINDAC1,OUTDOORAIR:MIXER,COUNSELORWINDAC1OAMIXER,COUNSELORWINDAC1OAMIXERINNODE,COUNSELORWINDAC1OAMIXERAIROUTLETNODE,Air Nodes
 Component Set,61,ZONEHVAC:WINDOWAIRCONDITIONER,GUIDANCEOFFICEWINDAC1,OUTDOORAIR:MIXER,GUIDANCEOFFICEWINDAC1OAMIXER,GUIDANCEOFFICEWINDAC1OAMIXERINNODE,GUIDANCEOFFICEWINDAC1OAMIXERAIROUTLETNODE,Air Nodes
 Component Set,62,ZONEHVAC:WINDOWAIRCONDITIONER,CREATIVEHUBWINDAC1,OUTDOORAIR:MIXER,CREATIVEHUBWINDAC1OAMIXER,CREATIVEHUBWINDAC1OAMIXERINNODE,CREATIVEHUBWINDAC1OAMIXERAIROUTLETNODE,Air Nodes
 Component Set,63,ZONEHVAC:WINDOWAIRCONDITIONER,CREATIVEHUBOFFICEWINDAC1,OUTDOORAIR:MIXER,CREATIVEHUBOFFICEWINDAC1OAMIXER,CREATIVEHUBOFFICEWINDAC1OAMIXERINNODE,CREATIVEHUBOFFICEWINDAC1OAMIXERAIROUTLETNODE,Air Nodes
 Component Set,64,ZONEHVAC:WINDOWAIRCONDITIONER,DISCUSSIONROOMWINDAC1,OUTDOORAIR:MIXER,DISCUSSIONROOMWINDAC1OAMIXER,DISCUSSIONROOMWINDAC1OAMIXERINNODE,DISCUSSIONROOMWINDAC1OAMIXERAIROUTLETNODE,Air Nodes
 Component Set,65,ZONEHVAC:WINDOWAIRCONDITIONER,SERVICEBUREAUWINDAC1,OUTDOORAIR:MIXER,SERVICEBUREAUWINDAC1OAMIXER,SERVICEBUREAUWINDAC1OAMIXERINNODE,SERVICEBUREAUWINDAC1OAMIXERAIROUTLETNODE,Air Nodes
 Component Set,66,ZONEHVAC:WINDOWAIRCONDITIONER,SERVICEBUREAUWINDAC2,OUTDOORAIR:MIXER,SERVICEBUREAUWINDAC2OAMIXER,SERVICEBUREAUWINDAC2OAMIXERINNODE,SERVICEBUREAUWINDAC2OAMIXERAIROUTLETNODE,Air Nodes
 Component Set,67,ZONEHVAC:WINDOWAIRCONDITIONER,SERVICEBUREAUWINDAC3,OUTDOORAIR:MIXER,SERVICEBUREAUWINDAC3OAMIXER,SERVICEBUREAUWINDAC3OAMIXERINNODE,SERVICEBUREAUWINDAC3OAMIXERAIROUTLETNODE,Air Nodes
 Component Set,68,ZONEHVAC:WINDOWAIRCONDITIONER,SERVICEBUREAUWINDAC4,OUTDOORAIR:MIXER,SERVICEBUREAUWINDAC4OAMIXER,SERVICEBUREAUWINDAC4OAMIXERINNODE,SERVICEBUREAUWINDAC4OAMIXERAIROUTLETNODE,Air Nodes
 Component Set,69,ZONEHVAC:WINDOWAIRCONDITIONER,ACCWINDAC1,OUTDOORAIR:MIXER,ACCWINDAC1OAMIXER,ACCWINDAC1OAMIXERINNODE,ACCWINDAC1OAMIXERAIROUTLETNODE,Air Nodes
 Component Set,70,ZONEHVAC:WINDOWAIRCONDITIONER,ACCWINDAC2,OUTDOORAIR:MIXER,ACCWINDAC2OAMIXER,ACCWINDAC2OAMIXERINNODE,ACCWINDAC2OAMIXERAIROUTLETNODE,Air Nodes
 Component Set,71,ZONEHVAC:WINDOWAIRCONDITIONER,FINEARTSDEPTWINDAC1,OUTDOORAIR:MIXER,FINEARTSDEPTWINDAC1OAMIXER,FINEARTSDEPTWINDAC1OAMIXERINNODE,FINEARTSDEPTWINDAC1OAMIXERAIROUTLETNODE,Air Nodes
 Component Set,72,ZONEHVAC:WINDOWAIRCONDITIONER,FINEARTSDEPTWINDAC2,OUTDOORAIR:MIXER,FINEARTSDEPTWINDAC2OAMIXER,FINEARTSDEPTWINDAC2OAMIXERINNODE,FINEARTSDEPTWINDAC2OAMIXERAIROUTLETNODE,Air Nodes
 Component Set,73,ZONEHVAC:WINDOWAIRCONDITIONER,FINEARTSFACULTYWINDAC1,OUTDOORAIR:MIXER,FINEARTSFACULTYWINDAC1OAMIXER,FINEARTSFACULTYWINDAC1OAMIXERINNODE,FINEARTSFACULTYWINDAC1OAMIXERAIROUTLETNODE,Air Nodes
 Component Set,74,ZONEHVAC:WINDOWAIRCONDITIONER,FINEARTSFACULTYWINDAC2,OUTDOORAIR:MIXER,FINEARTSFACULTYWINDAC2OAMIXER,FINEARTSFACULTYWINDAC2OAMIXERINNODE,FINEARTSFACULTYWINDAC2OAMIXERAIROUTLETNODE,Air Nodes
 Component Set,75,ZONEHVAC:WINDOWAIRCONDITIONER,ARCHIFACULTYWINDAC1,OUTDOORAIR:MIXER,ARCHIFACULTYWINDAC1OAMIXER,ARCHIFACULTYWINDAC1OAMIXERINNODE,ARCHIFACULTYWINDAC1OAMIXERAIROUTLETNODE,Air Nodes
 Component Set,76,ZONEHVAC:WINDOWAIRCONDITIONER,ARCHIFACULTYWINDAC2,OUTDOORAIR:MIXER,ARCHIFACULTYWINDAC2OAMIXER,ARCHIFACULTYWINDAC2OAMIXERINNODE,ARCHIFACULTYWINDAC2OAMIXERAIROUTLETNODE,Air Nodes
 Component Set,77,ZONEHVAC:WINDOWAIRCONDITIONER,ARCHIFACULTYWINDAC3,OUTDOORAIR:MIXER,ARCHIFACULTYWINDAC3OAMIXER,ARCHIFACULTYWINDAC3OAMIXERINNODE,ARCHIFACULTYWINDAC3OAMIXERAIROUTLETNODE,Air Nodes
 Component Set,78,ZONEHVAC:WINDOWAIRCONDITIONER,ARCHIDEPTWINDAC1,OUTDOORAIR:MIXER,ARCHIDEPTWINDAC1OAMIXER,ARCHIDEPTWINDAC1OAMIXERINNODE,ARCHIDEPTWINDAC1OAMIXERAIROUTLETNODE,Air Nodes
 Component Set,79,ZONEHVAC:WINDOWAIRCONDITIONER,ARCHIDEPTWINDAC2,OUTDOORAIR:MIXER,ARCHIDEPTWINDAC2OAMIXER,ARCHIDEPTWINDAC2OAMIXERINNODE,ARCHIDEPTWINDAC2OAMIXERAIROUTLETNODE,Air Nodes
 Component Set,80,ZONEHVAC:WINDOWAIRCONDITIONER,DEANSECWINDAC1,OUTDOORAIR:MIXER,DEANSECWINDAC1OAMIXER,DEANSECWINDAC1OAMIXERINNODE,DEANSECWINDAC1OAMIXERAIROUTLETNODE,Air Nodes
 Component Set,81,ZONEHVAC:WINDOWAIRCONDITIONER,SAFADCONFWINDAC1,OUTDOORAIR:MIXER,SAFADCONFWINDAC1OAMIXER,SAFADCONFWINDAC1OAMIXERINNODE,SAFADCONFWINDAC1OAMIXERAIROUTLETNODE,Air Nodes
 Component Set,82,ZONEHVAC:WINDOWAIRCONDITIONER,DEANOFFICEWINDAC1,OUTDOORAIR:MIXER,DEANOFFICEWINDAC1OAMIXER,DEANOFFICEWINDAC1OAMIXERINNODE,DEANOFFICEWINDAC1OAMIXERAIROUTLETNODE,Air Nodes
 Component Set,83,ZONEHVAC:WINDOWAIRCONDITIONER,AUXOFFICESWINDAC1,OUTDOORAIR:MIXER,AUXOFFICESWINDAC1OAMIXER,AUXOFFICESWINDAC1OAMIXERINNODE,AUXOFFICESWINDAC1OAMIXERAIROUTLETNODE,Air Nodes
 Component Set,84,ZONEHVAC:WINDOWAIRCONDITIONER,AUXOFFICESWINDAC2,OUTDOORAIR:MIXER,AUXOFFICESWINDAC2OAMIXER,AUXOFFICESWINDAC2OAMIXERINNODE,AUXOFFICESWINDAC2OAMIXERAIROUTLETNODE,Air Nodes
 Component Set,85,ZONEHVAC:WINDOWAIRCONDITIONER,AUXOFFICESWINDAC3,OUTDOORAIR:MIXER,AUXOFFICESWINDAC3OAMIXER,AUXOFFICESWINDAC3OAMIXERINNODE,AUXOFFICESWINDAC3OAMIXERAIROUTLETNODE,Air Nodes
 Component Set,86,ZONEHVAC:WINDOWAIRCONDITIONER,IPDWINDAC1,OUTDOORAIR:MIXER,IPDWINDAC1OAMIXER,IPDWINDAC1OAMIXERINNODE,IPDWINDAC1OAMIXERAIROUTLETNODE,Air Nodes
 Component Set,87,ZONEHVAC:WINDOWAIRCONDITIONER,IPDWINDAC2,OUTDOORAIR:MIXER,IPDWINDAC2OAMIXER,IPDWINDAC2OAMIXERINNODE,IPDWINDAC2OAMIXERAIROUTLETNODE,Air Nodes
 Component Set,88,ZONEHVAC:WINDOWAIRCONDITIONER,VPPFWINDAC1,OUTDOORAIR:MIXER,VPPFWINDAC1OAMIXER,VPPFWINDAC1OAMIXERINNODE,VPPFWINDAC1OAMIXERAIROUTLETNODE,Air Nodes
 Component Set,89,ZONEHVAC:WINDOWAIRCONDITIONER,FILMROOMWINDAC,OUTDOORAIR:MIXER,FILMROOMWINDACOAMIXER,FILMROOMWINDACOAMIXERINNODE,FILMROOMWINDACOAMIXERAIROUTLETNODE,Air Nodes
 Component Set,90,ZONEHVAC:WINDOWAIRCONDITIONER,SERVERROOMWINDAC,OUTDOORAIR:MIXER,SERVERROOMWINDACOAMIXER,SERVERROOMWINDACOAMIXERINNODE,SERVERROOMWINDACOAMIXERAIROUTLETNODE,Air Nodes
 Component Set,91,ZONEHVAC:WINDOWAIRCONDITIONER,LOCKEDROOMWINDAC,OUTDOORAIR:MIXER,LOCKEDROOMWINDACOAMIXER,LOCKEDROOMWINDACOAMIXERINNODE,LOCKEDROOMWINDACOAMIXERAIROUTLETNODE,Air Nodes
 Component Set,92,ZONEHVAC:WINDOWAIRCONDITIONER,AF101WINDAC1,FAN:ONOFF,AF101WINDAC1FAN,AF101WINDAC1OAMIXERAIROUTLETNODE,AF101WINDAC1FANOUTLETNODE,Air Nodes
 Component Set,93,ZONEHVAC:WINDOWAIRCONDITIONER,AF101WINDAC2,FAN:ONOFF,AF101WINDAC2FAN,AF101WINDAC2OAMIXERAIROUTLETNODE,AF101WINDAC2FANAIROUTLETNODE,Air Nodes
 Component Set,94,ZONEHVAC:WINDOWAIRCONDITIONER,AF102WINDAC1,FAN:ONOFF,AF102WINDAC1FAN,AF102WINDAC1OAMIXERAIROUTLETNODE,AF102WINDAC1FANAIROUTLETNODE,Air Nodes
 Component Set,95,ZONEHVAC:WINDOWAIRCONDITIONER,AF102WINDAC2,FAN:ONOFF,AF102WINDAC2FAN,AF102WINDAC2OAMIXERAIROUTLETNODE,AF102WINDAC2FANAIROUTLETNODE,Air Nodes
 Component Set,96,ZONEHVAC:WINDOWAIRCONDITIONER,AF103WINDAC1,FAN:ONOFF,AF103WINDAC1FAN,AF103WINDAC1OAMIXERAIROUTLETNODE,AF103WINDAC1FANAIROUTLETNODE,Air Nodes
 Component Set,97,ZONEHVAC:WINDOWAIRCONDITIONER,AF103WINDAC2,FAN:ONOFF,AF103WINDAC2FAN,AF103WINDAC2OAMIXERAIROUTLETNODE,AF103WINDAC2FANAIROUTLETNODE,Air Nodes
 Component Set,98,ZONEHVAC:WINDOWAIRCONDITIONER,AF104WINDAC1,FAN:ONOFF,AF104WINDAC1FAN,AF104WINDAC1OAMIXERAIROUTLETNODE,AF104WINDAC1FANAIROUTLETNODE,Air Nodes
 Component Set,99,ZONEHVAC:WINDOWAIRCONDITIONER,AF104WINDAC2,FAN:ONOFF,AF104WINDAC2FAN,AF104WINDAC2OAMIXERAIROUTLETNODE,AF104WINDAC2FANAIROUTLETNODE,Air Nodes
 Component Set,100,ZONEHVAC:WINDOWAIRCONDITIONER,AF109AWINDAC1,FAN:ONOFF,AF109AWINDAC1FAN,AF109AWINDAC1OAMIXERAIROUTLETNODE,AF109AWINDAC1FANAIROUTLETNODE,Air Nodes
 Component Set,101,ZONEHVAC:WINDOWAIRCONDITIONER,AF109AWINDAC2,FAN:ONOFF,AF109AWINDAC2FAN,AF109AWINDAC2OAMIXERAIROUTLETNODE,AF109AWINDAC2FANAIROUTLETNODE,Air Nodes
 Component Set,102,ZONEHVAC:WINDOWAIRCONDITIONER,AF109BWINDAC1,FAN:ONOFF,AF109BWINDAC1FAN,AF109BWINDAC1OAMIXERAIROUTLETNODE,AF109BWINDAC1FANAIROUTLETNODE,Air Nodes
 Component Set,103,ZONEHVAC:WINDOWAIRCONDITIONER,AF109BWINDAC2,FAN:ONOFF,AF109BWINDAC2FAN,AF109BWINDAC2OAMIXERAIROUTLETNODE,AF109BWINDAC2FANAIROUTLETNODE,Air Nodes
 Component Set,104,ZONEHVAC:WINDOWAIRCONDITIONER,AF110WINDAC1,FAN:ONOFF,AF110WINDAC1FAN,AF110WINDAC1OAMIXERAIROUTLETNODE,AF110WINDAC1FANAIROUTLETNODE,Air Nodes
 Component Set,105,ZONEHVAC:WINDOWAIRCONDITIONER,AF110WINDAC2,FAN:ONOFF,AF110WINDAC2FAN,AF110WINDAC2OAMIXERAIROUTLETNODE,AF110WINDAC2FANAIROUTLETNODE,Air Nodes
 Component Set,106,ZONEHVAC:WINDOWAIRCONDITIONER,AF111WINDAC1,FAN:ONOFF,AF111WINDAC1FAN,AF111WINDAC1OAMIXERAIROUTLETNODE,AF111WINDAC1FANAIROUTLETNODE,Air Nodes
 Component Set,107,ZONEHVAC:WINDOWAIRCONDITIONER,AF111WINDAC2,FAN:ONOFF,AF111WINDAC2FAN,AF111WINDAC2OAMIXERAIROUTLETNODE,AF111WINDAC2FANAIROUTLETNODE,Air Nodes
 Component Set,108,ZONEHVAC:WINDOWAIRCONDITIONER,AF207WINDAC1,FAN:ONOFF,AF207WINDAC1FAN,AF207WINDAC1OAMIXERAIROUTLETNODE,AF207WINDAC1FANAIROUTLETNODE,Air Nodes
 Component Set,109,ZONEHVAC:WINDOWAIRCONDITIONER,AF207WINDAC2,FAN:ONOFF,AF207WINDAC2FAN,AF207WINDAC2OAMIXERAIROUTLETNODE,AF207WINDAC2FANAIROUTLETNODE,Air Nodes
 Component Set,110,ZONEHVAC:WINDOWAIRCONDITIONER,AF208WINDAC1,FAN:ONOFF,AF208WINDAC1FAN,AF208WINDAC1OAMIXERAIROUTLETNODE,AF208WINDAC1FANAIROUTLETNODE,Air Nodes
 Component Set,111,ZONEHVAC:WINDOWAIRCONDITIONER,AF208WINDAC2,FAN:ONOFF,AF208WINDAC2FAN,AF208WINDAC2OAMIXERAIROUTLETNODE,AF208WINDAC2FANAIROUTLETNODE,Air Nodes
 Component Set,112,ZONEHVAC:WINDOWAIRCONDITIONER,AF209WINDAC1,FAN:ONOFF,AF209WINDAC1FAN,AF209WINDAC1OAMIXERAIROUTLETNODE,AF209WINDAC1FANAIROUTLETNODE,Air Nodes
 Component Set,113,ZONEHVAC:WINDOWAIRCONDITIONER,AF209WINDAC2,FAN:ONOFF,AF209WINDAC2FAN,AF209WINDAC2OAMIXERAIROUTLETNODE,AF209WINDAC2FANAIROUTLETNODE,Air Nodes
 Component Set,114,ZONEHVAC:WINDOWAIRCONDITIONER,AF210WINDAC1,FAN:ONOFF,AF210WINDAC1FAN,AF210WINDAC1OAMIXERAIROUTLETNODE,AF210WINDAC1FANAIROUTLETNODE,Air Nodes
 Component Set,115,ZONEHVAC:WINDOWAIRCONDITIONER,AF210WINDAC2,FAN:ONOFF,AF210WINDAC2FAN,AF210WINDAC2OAMIXERAIROUTLETNODE,AF210WINDAC2FANAIROUTLETNODE,Air Nodes
 Component Set,116,ZONEHVAC:WINDOWAIRCONDITIONER,AF211WINDAC1,FAN:ONOFF,AF211WINDAC1FAN,AF211WINDAC1OAMIXERAIROUTLETNODE,AF211WINDAC1FANAIROUTLETNODE,Air Nodes
 Component Set,117,ZONEHVAC:WINDOWAIRCONDITIONER,AF211WINDAC2,FAN:ONOFF,AF211WINDAC2FAN,AF211WINDAC2OAMIXERAIROUTLETNODE,AF211WINDAC2FANAIROUTLETNODE,Air Nodes
 Component Set,118,ZONEHVAC:WINDOWAIRCONDITIONER,AF212WINDAC1,FAN:ONOFF,AF212WINDAC1FAN,AF212WINDAC1OAMIXERAIROUTLETNODE,AF212WINDAC1FANAIROUTLETNODE,Air Nodes
 Component Set,119,ZONEHVAC:WINDOWAIRCONDITIONER,AF212WINDAC2,FAN:ONOFF,AF212WINDAC2FAN,AF212WINDAC2OAMIXERAIROUTLETNODE,AF212WINDAC2FANAIROUTLETNODE,Air Nodes
 Component Set,120,ZONEHVAC:WINDOWAIRCONDITIONER,AF213WINDAC1,FAN:ONOFF,AF213WINDAC1FAN,AF213WINDAC1OAMIXERAIROUTLETNODE,AF213WINDAC1FANAIROUTLETNODE,Air Nodes
 Component Set,121,ZONEHVAC:WINDOWAIRCONDITIONER,AF213WINDAC2,FAN:ONOFF,AF213WINDAC2FAN,AF213WINDAC2OAMIXERAIROUTLETNODE,AF213WINDAC2FANAIROUTLETNODE,Air Nodes
 Component Set,122,ZONEHVAC:WINDOWAIRCONDITIONER,AF214WINDAC1,FAN:ONOFF,AF214WINDAC1FAN,AF214WINDAC1OAMIXERAIROUTLETNODE,AF214WINDAC1FANAIROUTLETNODE,Air Nodes
 Component Set,123,ZONEHVAC:WINDOWAIRCONDITIONER,AF214WINDAC2,FAN:ONOFF,AF214WINDAC2FAN,AF214WINDAC2OAMIXERAIROUTLETNODE,AF214WINDAC2FANAIROUTLETNODE,Air Nodes
 Component Set,124,ZONEHVAC:WINDOWAIRCONDITIONER,AF215WINDAC1,FAN:ONOFF,AF215WINDAC1FAN,AF215WINDAC1OAMIXERAIROUTLETNODE,AF215WINDAC1FANAIROUTLETNODE,Air Nodes
 Component Set,125,ZONEHVAC:WINDOWAIRCONDITIONER,AF215WINDAC2,FAN:ONOFF,AF215WINDAC2FAN,AF215WINDAC2OAMIXERAIROUTLETNODE,AF215WINDAC2FANAIROUTLETNODE,Air Nodes
 Component Set,126,ZONEHVAC:WINDOWAIRCONDITIONER,AF304WINDAC1,FAN:ONOFF,AF304WINDAC1FAN,AF304WINDAC1OAMIXERAIROUTLETNODE,AF304WINDAC1FANAIROUTLETNODE,Air Nodes
 Component Set,127,ZONEHVAC:WINDOWAIRCONDITIONER,AF304WINDAC2,FAN:ONOFF,AF304WINDAC2FAN,AF304WINDAC2OAMIXERAIROUTLETNODE,AF304WINDAC2FANAIROUTLETNODE,Air Nodes
 Component Set,128,ZONEHVAC:WINDOWAIRCONDITIONER,AF306WINDAC1,FAN:ONOFF,AF306WINDAC1FAN,AF306WINDAC1OAMIXERAIROUTLETNODE,AF306WINDAC1FANAIROUTLETNODE,Air Nodes
 Component Set,129,ZONEHVAC:WINDOWAIRCONDITIONER,AF306WINDAC2,FAN:ONOFF,AF306WINDAC2FAN,AF306WINDAC2OAMIXERAIROUTLETNODE,AF306WINDAC2FANAIROUTLETNODE,Air Nodes
 Component Set,130,ZONEHVAC:WINDOWAIRCONDITIONER,AF1B12AWINDAC1,FAN:ONOFF,AF1B12AWINDAC1FAN,AF1B12AWINDAC1OAMIXERAIROUTLETNODE,AF1B12AWINDAC1FANAIROUTLETNODE,Air Nodes
 Component Set,131,ZONEHVAC:WINDOWAIRCONDITIONER,AF1B12AWINDAC2,FAN:ONOFF,AF1B12AWINDAC2FAN,AF1B12AWINDAC2OAMIXERAIROUTLETNODE,AF1B12AWINDAC2FANAIROUTLETNODE,Air Nodes
 Component Set,132,ZONEHVAC:WINDOWAIRCONDITIONER,AF1B12BWINDAC1,FAN:ONOFF,AF1B12BWINDAC1FAN,AF1B12BWINDAC1OAMIXERAIROUTLETNODE,AF1B12BWINDAC1FANAIROUTLETNODE,Air Nodes
 Component Set,133,ZONEHVAC:WINDOWAIRCONDITIONER,AF1B12BWINDAC2,FAN:ONOFF,AF1B12BWINDAC2FAN,AF1B12BWINDAC2OAMIXERAIROUTLETNODE,AF1B12BWINDAC2FANAIROUTLETNODE,Air Nodes
 Component Set,134,ZONEHVAC:WINDOWAIRCONDITIONER,AF1B12CWINDAC1,FAN:ONOFF,AF1B12CWINDAC1FAN,AF1B12CWINDAC1OAMIXERAIROUTLETNODE,AF1B12CWINDAC1FANAIROUTLETNODE,Air Nodes
 Component Set,135,ZONEHVAC:WINDOWAIRCONDITIONER,AF1B12CWINDAC2,FAN:ONOFF,AF1B12CWINDAC2FAN,AF1B12CWINDAC2OAMIXERAIROUTLETNODE,AF1B12CWINDAC2FANAIROUTLETNODE,Air Nodes
 Component Set,136,ZONEHVAC:WINDOWAIRCONDITIONER,AF1B12DWINDAC1,FAN:ONOFF,AF1B12DWINDAC1FAN,AF1B12DWINDAC1OAMIXERAIROUTLETNODE,AF1B12DWINDAC1FANAIROUTLETNODE,Air Nodes
 Component Set,137,ZONEHVAC:WINDOWAIRCONDITIONER,AF1B12DWINDAC2,FAN:ONOFF,AF1B12DWINDAC2FAN,AF1B12DWINDAC2OAMIXERAIROUTLETNODE,AF1B12DWINDAC2FANAIROUTLETNODE,Air Nodes
 Component Set,138,ZONEHVAC:WINDOWAIRCONDITIONER,AF1B12EWINDAC1,FAN:ONOFF,AF1B12EWINDAC1FAN,AF1B12EWINDAC1OAMIXERAIROUTLETNODE,AF1B12EWINDAC1FANAIROUTLETNODE,Air Nodes
 Component Set,139,ZONEHVAC:WINDOWAIRCONDITIONER,AF1B12EWINDAC2,FAN:ONOFF,AF1B12EWINDAC2FAN,AF1B12EWINDAC2OAMIXERAIROUTLETNODE,AF1B12EWINDAC2FANAIROUTLETNODE,Air Nodes
 Component Set,140,ZONEHVAC:WINDOWAIRCONDITIONER,AF1B12FWINDAC1,FAN:ONOFF,AF1B12FWINDAC1FAN,AF1B12FWINDAC1OAMIXERAIROUTLETNODE,AF1B12FWINDAC1FANAIROUTLETNODE,Air Nodes
 Component Set,141,ZONEHVAC:WINDOWAIRCONDITIONER,AF1B12FWINDAC2,FAN:ONOFF,AF1B12FWINDAC2FAN,AF1B12FWINDAC2OAMIXERAIROUTLETNODE,AF1B12FWINDAC2FANAIROUTLETNODE,Air Nodes
 Component Set,142,ZONEHVAC:WINDOWAIRCONDITIONER,AFCB1WINDAC1,FAN:ONOFF,AFCB1WINDAC1FAN,AFCB1WINDAC1OAMIXERAIROUTLETNODE,AFCB1WINDAC1FANAIROUTLETNODE,Air Nodes
 Component Set,143,ZONEHVAC:WINDOWAIRCONDITIONER,AFCB1WINDAC2,FAN:ONOFF,AFCB1WINDAC2FAN,AFCB1WINDAC2OAMIXERAIROUTLETNODE,AFCB1WINDAC2FANAIROUTLETNODE,Air Nodes
 Component Set,144,ZONEHVAC:WINDOWAIRCONDITIONER,AFCB2WINDAC1,FAN:ONOFF,AFCB2WINDAC1FAN,AFCB2WINDAC1OAMIXERAIROUTLETNODE,AFCB2WINDAC1FANAIROUTLETNODE,Air Nodes
 Component Set,145,ZONEHVAC:WINDOWAIRCONDITIONER,AFCB2WINDAC2,FAN:ONOFF,AFCB2WINDAC2FAN,AFCB2WINDAC2OAMIXERAIROUTLETNODE,AFCB2WINDAC2FANAIROUTLETNODE,Air Nodes
 Component Set,146,ZONEHVAC:WINDOWAIRCONDITIONER,AFCB3WINDAC1,FAN:ONOFF,AFCB3WINDAC1FAN,AFCB3WINDAC1OAMIXERAIROUTLETNODE,AFCB3WINDAC1FANAIROUTLETNODE,Air Nodes
 Component Set,147,ZONEHVAC:WINDOWAIRCONDITIONER,AFCB3WINDAC2,FAN:ONOFF,AFCB3WINDAC2FAN,AFCB3WINDAC2OAMIXERAIROUTLETNODE,AFCB3WINDAC2FANAIROUTLETNODE,Air Nodes
 Component Set,148,ZONEHVAC:WINDOWAIRCONDITIONER,AFCB4WINDAC1,FAN:ONOFF,AFCB4WINDAC1FAN,AFCB4WINDAC1OAMIXERAIROUTLETNODE,AFCB4WINDAC1FANAIROUTLETNODE,Air Nodes
 Component Set,149,ZONEHVAC:WINDOWAIRCONDITIONER,AFCB4WINDAC2,FAN:ONOFF,AFCB4WINDAC2FAN,AFCB4WINDAC2OAMIXERAIROUTLETNODE,AFCB4WINDAC2FANAIROUTLETNODE,Air Nodes
 Component Set,150,ZONEHVAC:WINDOWAIRCONDITIONER,CLINICWINDAC1,FAN:ONOFF,CLINICWINDAC1FAN,CLINICWINDAC1OAMIXERAIROUTLETNODE,CLINICWINDAC1FANAIROUTLETNODE,Air Nodes
 Component Set,151,ZONEHVAC:WINDOWAIRCONDITIONER,COUNSELORWINDAC1,FAN:ONOFF,COUNSELORWINDAC1FAN,COUNSELORWINDAC1OAMIXERAIROUTLETNODE,COUNSELORWINDAC1FANAIROUTLETNODE,Air Nodes
 Component Set,152,ZONEHVAC:WINDOWAIRCONDITIONER,GUIDANCEOFFICEWINDAC1,FAN:ONOFF,GUIDANCEOFFICEWINDAC1FAN,GUIDANCEOFFICEWINDAC1OAMIXERAIROUTLETNODE,GUIDANCEOFFICEWINDAC1FANAIROUTLETNODE,Air Nodes
 Component Set,153,ZONEHVAC:WINDOWAIRCONDITIONER,CREATIVEHUBWINDAC1,FAN:ONOFF,CREATIVEHUBWINDAC1FAN,CREATIVEHUBWINDAC1OAMIXERAIROUTLETNODE,CREATIVEHUBWINDAC1FANAIROUTLETNODE,Air Nodes
 Component Set,154,ZONEHVAC:WINDOWAIRCONDITIONER,CREATIVEHUBOFFICEWINDAC1,FAN:ONOFF,CREATIVEHUBOFFICEWINDAC1FAN,CREATIVEHUBOFFICEWINDAC1OAMIXERAIROUTLETNODE,CREATIVEHUBOFFICEWINDAC1FANAIROUTLETNODE,Air Nodes
 Component Set,155,ZONEHVAC:WINDOWAIRCONDITIONER,DISCUSSIONROOMWINDAC1,FAN:ONOFF,DISCUSSIONROOMWINDAC1FAN,DISCUSSIONROOMWINDAC1OAMIXERAIROUTLETNODE,DISCUSSIONROOMWINDAC1FANAIROUTLETNODE,Air Nodes
 Component Set,156,ZONEHVAC:WINDOWAIRCONDITIONER,SERVICEBUREAUWINDAC1,FAN:ONOFF,SERVICEBUREAUWINDAC1FAN,SERVICEBUREAUWINDAC1OAMIXERAIROUTLETNODE,SERVICEBUREAUWINDAC1FANAIROUTLETNODE,Air Nodes
 Component Set,157,ZONEHVAC:WINDOWAIRCONDITIONER,SERVICEBUREAUWINDAC2,FAN:ONOFF,SERVICEBUREAUWINDAC2FAN,SERVICEBUREAUWINDAC2OAMIXERAIROUTLETNODE,SERVICEBUREAUWINDAC2FANAIROUTLETNODE,Air Nodes
 Component Set,158,ZONEHVAC:WINDOWAIRCONDITIONER,SERVICEBUREAUWINDAC3,FAN:ONOFF,SERVICEBUREAUWINDAC3FAN,SERVICEBUREAUWINDAC3OAMIXERAIROUTLETNODE,SERVICEBUREAUWINDAC3FANAIROUTLETNODE,Air Nodes
 Component Set,159,ZONEHVAC:WINDOWAIRCONDITIONER,SERVICEBUREAUWINDAC4,FAN:ONOFF,SERVICEBUREAUWINDAC4FAN,SERVICEBUREAUWINDAC4OAMIXERAIROUTLETNODE,SERVICEBUREAUWINDAC4FANAIROUTLETNODE,Air Nodes
 Component Set,160,ZONEHVAC:WINDOWAIRCONDITIONER,ACCWINDAC1,FAN:ONOFF,ACCWINDAC1FAN,ACCWINDAC1OAMIXERAIROUTLETNODE,ACCWINDAC1FANAIROUTLETNODE,Air Nodes
 Component Set,161,ZONEHVAC:WINDOWAIRCONDITIONER,ACCWINDAC2,FAN:ONOFF,ACCWINDAC2FAN,ACCWINDAC2OAMIXERAIROUTLETNODE,ACCWINDAC2FANAIROUTLETNODE,Air Nodes
 Component Set,162,ZONEHVAC:WINDOWAIRCONDITIONER,FINEARTSDEPTWINDAC1,FAN:ONOFF,FINEARTSDEPTWINDAC1FAN,FINEARTSDEPTWINDAC1OAMIXERAIROUTLETNODE,FINEARTSDEPTWINDAC1FANAIROUTLETNODE,Air Nodes
 Component Set,163,ZONEHVAC:WINDOWAIRCONDITIONER,FINEARTSDEPTWINDAC2,FAN:ONOFF,FINEARTSDEPTWINDAC2FAN,FINEARTSDEPTWINDAC2OAMIXERAIROUTLETNODE,FINEARTSDEPTWINDAC2FANAIROUTLETNODE,Air Nodes
 Component Set,164,ZONEHVAC:WINDOWAIRCONDITIONER,FINEARTSFACULTYWINDAC1,FAN:ONOFF,FINEARTSFACULTYWINDAC1FAN,FINEARTSFACULTYWINDAC1OAMIXERAIROUTLETNODE,FINEARTSFACULTYWINDAC1FANAIROUTLETNODE,Air Nodes
 Component Set,165,ZONEHVAC:WINDOWAIRCONDITIONER,FINEARTSFACULTYWINDAC2,FAN:ONOFF,FINEARTSFACULTYWINDAC2FAN,FINEARTSFACULTYWINDAC2OAMIXERAIROUTLETNODE,FINEARTSFACULTYWINDAC2FANAIROUTLETNODE,Air Nodes
 Component Set,166,ZONEHVAC:WINDOWAIRCONDITIONER,ARCHIFACULTYWINDAC1,FAN:ONOFF,ARCHIFACULTYWINDAC1FAN,ARCHIFACULTYWINDAC1OAMIXERAIROUTLETNODE,ARCHIFACULTYWINDAC1FANAIROUTLETNODE,Air Nodes
 Component Set,167,ZONEHVAC:WINDOWAIRCONDITIONER,ARCHIFACULTYWINDAC2,FAN:ONOFF,ARCHIFACULTYWINDAC2FAN,ARCHIFACULTYWINDAC2OAMIXERAIROUTLETNODE,ARCHIFACULTYWINDAC2FANAIROUTLETNODE,Air Nodes
 Component Set,168,ZONEHVAC:WINDOWAIRCONDITIONER,ARCHIFACULTYWINDAC3,FAN:ONOFF,ARCHIFACULTYWINDAC3FAN,ARCHIFACULTYWINDAC3OAMIXERAIROUTLETNODE,ARCHIFACULTYWINDAC3FANAIROUTLETNODE,Air Nodes
 Component Set,169,ZONEHVAC:WINDOWAIRCONDITIONER,ARCHIDEPTWINDAC1,FAN:ONOFF,ARCHIDEPTWINDAC1FAN,ARCHIDEPTWINDAC1OAMIXERAIROUTLETNODE,ARCHIDEPTWINDAC1FANAIROUTLETNODE,Air Nodes
 Component Set,170,ZONEHVAC:WINDOWAIRCONDITIONER,ARCHIDEPTWINDAC2,FAN:ONOFF,ARCHIDEPTWINDAC2FAN,ARCHIDEPTWINDAC2OAMIXERAIROUTLETNODE,ARCHIDEPTWINDAC2FANAIROUTLETNODE,Air Nodes
 Component Set,171,ZONEHVAC:WINDOWAIRCONDITIONER,DEANSECWINDAC1,FAN:ONOFF,DEANSECWINDAC1FAN,DEANSECWINDAC1OAMIXERAIROUTLETNODE,DEANSECWINDAC1FANAIROUTLETNODE,Air Nodes
 Component Set,172,ZONEHVAC:WINDOWAIRCONDITIONER,SAFADCONFWINDAC1,FAN:ONOFF,SAFADCONFWINDAC1FAN,SAFADCONFWINDAC1OAMIXERAIROUTLETNODE,SAFADCONFWINDAC1FANAIROUTLETNODE,Air Nodes
 Component Set,173,ZONEHVAC:WINDOWAIRCONDITIONER,DEANOFFICEWINDAC1,FAN:ONOFF,DEANOFFICEWINDAC1FAN,DEANOFFICEWINDAC1OAMIXERAIROUTLETNODE,DEANOFFICEWINDAC1FANAIROUTLETNODE,Air Nodes
 Component Set,174,ZONEHVAC:WINDOWAIRCONDITIONER,AUXOFFICESWINDAC1,FAN:ONOFF,AUXOFFICESWINDAC1FAN,AUXOFFICESWINDAC1OAMIXERAIROUTLETNODE,AUXOFFICESWINDAC1FANAIROUTLETNODE,Air Nodes
 Component Set,175,ZONEHVAC:WINDOWAIRCONDITIONER,AUXOFFICESWINDAC2,FAN:ONOFF,AUXOFFICESWINDAC2FAN,AUXOFFICESWINDAC2OAMIXERAIROUTLETNODE,AUXOFFICESWINDAC2FANAIROUTLETNODE,Air Nodes
 Component Set,176,ZONEHVAC:WINDOWAIRCONDITIONER,AUXOFFICESWINDAC3,FAN:ONOFF,AUXOFFICESWINDAC3FAN,AUXOFFICESWINDAC3OAMIXERAIROUTLETNODE,AUXOFFICESWINDAC3FANAIROUTLETNODE,Air Nodes
 Component Set,177,ZONEHVAC:WINDOWAIRCONDITIONER,IPDWINDAC1,FAN:ONOFF,IPDWINDAC1FAN,IPDWINDAC1OAMIXERAIROUTLETNODE,IPDWINDAC1FANAIROUTLETNODE,Air Nodes
 Component Set,178,ZONEHVAC:WINDOWAIRCONDITIONER,IPDWINDAC2,FAN:ONOFF,IPDWINDAC2FAN,IPDWINDAC2OAMIXERAIROUTLETNODE,IPDWINDAC2FANAIROUTLETNODE,Air Nodes
 Component Set,179,ZONEHVAC:WINDOWAIRCONDITIONER,VPPFWINDAC1,FAN:ONOFF,VPPFWINDAC1FAN,VPPFWINDAC1OAMIXERAIROUTLETNODE,VPPFWINDAC1FANAIROUTLETNODE,Air Nodes
 Component Set,180,ZONEHVAC:WINDOWAIRCONDITIONER,FILMROOMWINDAC,FAN:ONOFF,FILMROOMWINDACFAN,FILMROOMWINDACOAMIXERAIROUTLETNODE,FILMROOMWINDACFANAIROUTLETNODE,Air Nodes
 Component Set,181,ZONEHVAC:WINDOWAIRCONDITIONER,SERVERROOMWINDAC,FAN:ONOFF,SERVERROOMWINDACFAN,SERVERROOMWINDACOAMIXERAIROUTLETNODE,SERVERROOMWINDACFANAIROUTLETNODE,Air Nodes
 Component Set,182,ZONEHVAC:WINDOWAIRCONDITIONER,LOCKEDROOMWINDAC,FAN:ONOFF,LOCKEDROOMWINDACFAN,LOCKEDROOMWINDACOAMIXERAIROUTLETNODE,LOCKEDROOMWINDACFANAIROUTLETNODE,Air Nodes
 Component Set,183,ZONEHVAC:WINDOWAIRCONDITIONER,AF101WINDAC1,COIL:COOLING:DX:SINGLESPEED,AF101WINDAC1DXCOIL,AF101WINDAC1FANOUTLETNODE,AF101WINDAC1AIROUTLETNODE,Air Nodes
 Component Set,184,ZONEHVAC:WINDOWAIRCONDITIONER,AF101WINDAC2,COIL:COOLING:DX:SINGLESPEED,AF101WINDAC2DXCOIL,AF101WINDAC2FANAIROUTLETNODE,AF101WINDAC2AIROUTLETNODE,Air Nodes
 Component Set,185,ZONEHVAC:WINDOWAIRCONDITIONER,AF102WINDAC1,COIL:COOLING:DX:SINGLESPEED,AF102WINDAC1DXCOIL,AF102WINDAC1FANAIROUTLETNODE,AF102WINDAC1AIROUTLETNODE,Air Nodes
 Component Set,186,ZONEHVAC:WINDOWAIRCONDITIONER,AF102WINDAC2,COIL:COOLING:DX:SINGLESPEED,AF102WINDAC2DXCOIL,AF102WINDAC2FANAIROUTLETNODE,AF102WINDAC2AIROUTLETNODE,Air Nodes
 Component Set,187,ZONEHVAC:WINDOWAIRCONDITIONER,AF103WINDAC1,COIL:COOLING:DX:SINGLESPEED,AF103WINDAC1DXCOIL,AF103WINDAC1FANAIROUTLETNODE,AF103WINDAC1AIROUTLETNODE,Air Nodes
 Component Set,188,ZONEHVAC:WINDOWAIRCONDITIONER,AF103WINDAC2,COIL:COOLING:DX:SINGLESPEED,AF103WINDAC2DXCOIL,AF103WINDAC2FANAIROUTLETNODE,AF103WINDAC2AIROUTLETNODE,Air Nodes
 Component Set,189,ZONEHVAC:WINDOWAIRCONDITIONER,AF104WINDAC1,COIL:COOLING:DX:SINGLESPEED,AF104WINDAC1DXCOIL,AF104WINDAC1FANAIROUTLETNODE,AF104WINDAC1AIROUTLETNODE,Air Nodes
 Component Set,190,ZONEHVAC:WINDOWAIRCONDITIONER,AF104WINDAC2,COIL:COOLING:DX:SINGLESPEED,AF104WINDAC2DXCOIL,AF104WINDAC2FANAIROUTLETNODE,AF104WINDAC2AIROUTLETNODE,Air Nodes
 Component Set,191,ZONEHVAC:WINDOWAIRCONDITIONER,AF109AWINDAC1,COIL:COOLING:DX:SINGLESPEED,AF109AWINDAC1DXCOIL,AF109AWINDAC1FANAIROUTLETNODE,AF109AWINDAC1AIROUTLETNODE,Air Nodes
 Component Set,192,ZONEHVAC:WINDOWAIRCONDITIONER,AF109AWINDAC2,COIL:COOLING:DX:SINGLESPEED,AF109AWINDAC2DXCOIL,AF109AWINDAC2FANAIROUTLETNODE,AF109AWINDAC2AIROUTLETNODE,Air Nodes
 Component Set,193,ZONEHVAC:WINDOWAIRCONDITIONER,AF109BWINDAC1,COIL:COOLING:DX:SINGLESPEED,AF109BWINDAC1DXCOIL,AF109BWINDAC1FANAIROUTLETNODE,AF109BWINDAC1AIROUTLETNODE,Air Nodes
 Component Set,194,ZONEHVAC:WINDOWAIRCONDITIONER,AF109BWINDAC2,COIL:COOLING:DX:SINGLESPEED,AF109BWINDAC2DXCOIL,AF109BWINDAC2FANAIROUTLETNODE,AF109BWINDAC2AIROUTLETNODE,Air Nodes
 Component Set,195,ZONEHVAC:WINDOWAIRCONDITIONER,AF110WINDAC1,COIL:COOLING:DX:SINGLESPEED,AF110WINDAC1DXCOIL,AF110WINDAC1FANAIROUTLETNODE,AF110WINDAC1AIROUTLETNODE,Air Nodes
 Component Set,196,ZONEHVAC:WINDOWAIRCONDITIONER,AF110WINDAC2,COIL:COOLING:DX:SINGLESPEED,AF110WINDAC2DXCOIL,AF110WINDAC2FANAIROUTLETNODE,AF110WINDAC2AIROUTLETNODE,Air Nodes
 Component Set,197,ZONEHVAC:WINDOWAIRCONDITIONER,AF111WINDAC1,COIL:COOLING:DX:SINGLESPEED,AF111WINDAC1DXCOIL,AF111WINDAC1FANAIROUTLETNODE,AF111WINDAC1AIROUTLETNODE,Air Nodes
 Component Set,198,ZONEHVAC:WINDOWAIRCONDITIONER,AF111WINDAC2,COIL:COOLING:DX:SINGLESPEED,AF111WINDAC2DXCOIL,AF111WINDAC2FANAIROUTLETNODE,AF111WINDAC2AIROUTLETNODE,Air Nodes
[...]
 Non-Parent Node Connection,AF103WINDAC1AIROUTLETNODE,COIL:COOLING:DX:SINGLESPEED,AF103WINDAC1DXCOIL,Outlet,1
 Non-Parent Node Connection,AF103WINDAC2FANAIROUTLETNODE,COIL:COOLING:DX:SINGLESPEED,AF103WINDAC2DXCOIL,Inlet,1
 Non-Parent Node Connection,AF103WINDAC2AIROUTLETNODE,COIL:COOLING:DX:SINGLESPEED,AF103WINDAC2DXCOIL,Outlet,1
 Non-Parent Node Connection,AF104WINDAC1FANAIROUTLETNODE,COIL:COOLING:DX:SINGLESPEED,AF104WINDAC1DXCOIL,Inlet,1
 Non-Parent Node Connection,AF104WINDAC1AIROUTLETNODE,COIL:COOLING:DX:SINGLESPEED,AF104WINDAC1DXCOIL,Outlet,1
 Non-Parent Node Connection,AF104WINDAC2FANAIROUTLETNODE,COIL:COOLING:DX:SINGLESPEED,AF104WINDAC2DXCOIL,Inlet,1
 Non-Parent Node Connection,AF104WINDAC2AIROUTLETNODE,COIL:COOLING:DX:SINGLESPEED,AF104WINDAC2DXCOIL,Outlet,1
 Non-Parent Node Connection,AF109AWINDAC1FANAIROUTLETNODE,COIL:COOLING:DX:SINGLESPEED,AF109AWINDAC1DXCOIL,Inlet,1
 Non-Parent Node Connection,AF109AWINDAC1AIROUTLETNODE,COIL:COOLING:DX:SINGLESPEED,AF109AWINDAC1DXCOIL,Outlet,1
 Non-Parent Node Connection,AF109AWINDAC2FANAIROUTLETNODE,COIL:COOLING:DX:SINGLESPEED,AF109AWINDAC2DXCOIL,Inlet,1
 Non-Parent Node Connection,AF109AWINDAC2AIROUTLETNODE,COIL:COOLING:DX:SINGLESPEED,AF109AWINDAC2DXCOIL,Outlet,1
 Non-Parent Node Connection,AF109BWINDAC1FANAIROUTLETNODE,COIL:COOLING:DX:SINGLESPEED,AF109BWINDAC1DXCOIL,Inlet,1
 Non-Parent Node Connection,AF109BWINDAC1AIROUTLETNODE,COIL:COOLING:DX:SINGLESPEED,AF109BWINDAC1DXCOIL,Outlet,1
 Non-Parent Node Connection,AF109BWINDAC2FANAIROUTLETNODE,COIL:COOLING:DX:SINGLESPEED,AF109BWINDAC2DXCOIL,Inlet,1
 Non-Parent Node Connection,AF109BWINDAC2AIROUTLETNODE,COIL:COOLING:DX:SINGLESPEED,AF109BWINDAC2DXCOIL,Outlet,1
 Non-Parent Node Connection,AF110WINDAC1FANAIROUTLETNODE,COIL:COOLING:DX:SINGLESPEED,AF110WINDAC1DXCOIL,Inlet,1
 Non-Parent Node Connection,AF110WINDAC1AIROUTLETNODE,COIL:COOLING:DX:SINGLESPEED,AF110WINDAC1DXCOIL,Outlet,1
 Non-Parent Node Connection,AF110WINDAC2FANAIROUTLETNODE,COIL:COOLING:DX:SINGLESPEED,AF110WINDAC2DXCOIL,Inlet,1
 Non-Parent Node Connection,AF110WINDAC2AIROUTLETNODE,COIL:COOLING:DX:SINGLESPEED,AF110WINDAC2DXCOIL,Outlet,1
 Non-Parent Node Connection,AF111WINDAC1FANAIROUTLETNODE,COIL:COOLING:DX:SINGLESPEED,AF111WINDAC1DXCOIL,Inlet,1
 Non-Parent Node Connection,AF111WINDAC1AIROUTLETNODE,COIL:COOLING:DX:SINGLESPEED,AF111WINDAC1DXCOIL,Outlet,1
 Non-Parent Node Connection,AF111WINDAC2FANAIROUTLETNODE,COIL:COOLING:DX:SINGLESPEED,AF111WINDAC2DXCOIL,Inlet,1
 Non-Parent Node Connection,AF111WINDAC2AIROUTLETNODE,COIL:COOLING:DX:SINGLESPEED,AF111WINDAC2DXCOIL,Outlet,1
 Non-Parent Node Connection,AF207WINDAC1FANAIROUTLETNODE,COIL:COOLING:DX:SINGLESPEED,AF207WINDAC1DXCOIL,Inlet,1
 Non-Parent Node Connection,AF207WINDAC1AIROUTLETNODE,COIL:COOLING:DX:SINGLESPEED,AF207WINDAC1DXCOIL,Outlet,1
 Non-Parent Node Connection,AF207WINDAC2FANAIROUTLETNODE,COIL:COOLING:DX:SINGLESPEED,AF207WINDAC2DXCOIL,Inlet,1
 Non-Parent Node Connection,AF207WINDAC2AIROUTLETNODE,COIL:COOLING:DX:SINGLESPEED,AF207WINDAC2DXCOIL,Outlet,1
 Non-Parent Node Connection,AF208WINDAC1FANAIROUTLETNODE,COIL:COOLING:DX:SINGLESPEED,AF208WINDAC1DXCOIL,Inlet,1
 Non-Parent Node Connection,AF208WINDAC1AIROUTLETNODE,COIL:COOLING:DX:SINGLESPEED,AF208WINDAC1DXCOIL,Outlet,1
 Non-Parent Node Connection,AF208WINDAC2FANAIROUTLETNODE,COIL:COOLING:DX:SINGLESPEED,AF208WINDAC2DXCOIL,Inlet,1
 Non-Parent Node Connection,AF208WINDAC2AIROUTLETNODE,COIL:COOLING:DX:SINGLESPEED,AF208WINDAC2DXCOIL,Outlet,1
 Non-Parent Node Connection,AF209WINDAC1FANAIROUTLETNODE,COIL:COOLING:DX:SINGLESPEED,AF209WINDAC1DXCOIL,Inlet,1
 Non-Parent Node Connection,AF209WINDAC1AIROUTLETNODE,COIL:COOLING:DX:SINGLESPEED,AF209WINDAC1DXCOIL,Outlet,1
 Non-Parent Node Connection,AF209WINDAC2FANAIROUTLETNODE,COIL:COOLING:DX:SINGLESPEED,AF209WINDAC2DXCOIL,Inlet,1
 Non-Parent Node Connection,AF209WINDAC2AIROUTLETNODE,COIL:COOLING:DX:SINGLESPEED,AF209WINDAC2DXCOIL,Outlet,1
 Non-Parent Node Connection,AF210WINDAC1FANAIROUTLETNODE,COIL:COOLING:DX:SINGLESPEED,AF210WINDAC1DXCOIL,Inlet,1
 Non-Parent Node Connection,AF210WINDAC1AIROUTLETNODE,COIL:COOLING:DX:SINGLESPEED,AF210WINDAC1DXCOIL,Outlet,1
 Non-Parent Node Connection,AF210WINDAC2FANAIROUTLETNODE,COIL:COOLING:DX:SINGLESPEED,AF210WINDAC2DXCOIL,Inlet,1
 Non-Parent Node Connection,AF210WINDAC2AIROUTLETNODE,COIL:COOLING:DX:SINGLESPEED,AF210WINDAC2DXCOIL,Outlet,1
 Non-Parent Node Connection,AF211WINDAC1FANAIROUTLETNODE,COIL:COOLING:DX:SINGLESPEED,AF211WINDAC1DXCOIL,Inlet,1
 Non-Parent Node Connection,AF211WINDAC1AIROUTLETNODE,COIL:COOLING:DX:SINGLESPEED,AF211WINDAC1DXCOIL,Outlet,1
 Non-Parent Node Connection,AF211WINDAC2FANAIROUTLETNODE,COIL:COOLING:DX:SINGLESPEED,AF211WINDAC2DXCOIL,Inlet,1
 Non-Parent Node Connection,AF211WINDAC2AIROUTLETNODE,COIL:COOLING:DX:SINGLESPEED,AF211WINDAC2DXCOIL,Outlet,1
 Non-Parent Node Connection,AF212WINDAC1FANAIROUTLETNODE,COIL:COOLING:DX:SINGLESPEED,AF212WINDAC1DXCOIL,Inlet,1
 Non-Parent Node Connection,AF212WINDAC1AIROUTLETNODE,COIL:COOLING:DX:SINGLESPEED,AF212WINDAC1DXCOIL,Outlet,1
 Non-Parent Node Connection,AF212WINDAC2FANAIROUTLETNODE,COIL:COOLING:DX:SINGLESPEED,AF212WINDAC2DXCOIL,Inlet,1
 Non-Parent Node Connection,AF212WINDAC2AIROUTLETNODE,COIL:COOLING:DX:SINGLESPEED,AF212WINDAC2DXCOIL,Outlet,1
 Non-Parent Node Connection,AF213WINDAC1FANAIROUTLETNODE,COIL:COOLING:DX:SINGLESPEED,AF213WINDAC1DXCOIL,Inlet,1
 Non-Parent Node Connection,AF213WINDAC1AIROUTLETNODE,COIL:COOLING:DX:SINGLESPEED,AF213WINDAC1DXCOIL,Outlet,1
 Non-Parent Node Connection,AF213WINDAC2FANAIROUTLETNODE,COIL:COOLING:DX:SINGLESPEED,AF213WINDAC2DXCOIL,Inlet,1
 Non-Parent Node Connection,AF213WINDAC2AIROUTLETNODE,COIL:COOLING:DX:SINGLESPEED,AF213WINDAC2DXCOIL,Outlet,1
 Non-Parent Node Connection,AF214WINDAC1FANAIROUTLETNODE,COIL:COOLING:DX:SINGLESPEED,AF214WINDAC1DXCOIL,Inlet,1
 Non-Parent Node Connection,AF214WINDAC1AIROUTLETNODE,COIL:COOLING:DX:SINGLESPEED,AF214WINDAC1DXCOIL,Outlet,1
 Non-Parent Node Connection,AF214WINDAC2FANAIROUTLETNODE,COIL:COOLING:DX:SINGLESPEED,AF214WINDAC2DXCOIL,Inlet,1
 Non-Parent Node Connection,AF214WINDAC2AIROUTLETNODE,COIL:COOLING:DX:SINGLESPEED,AF214WINDAC2DXCOIL,Outlet,1
 Non-Parent Node Connection,AF215WINDAC1FANAIROUTLETNODE,COIL:COOLING:DX:SINGLESPEED,AF215WINDAC1DXCOIL,Inlet,1
 Non-Parent Node Connection,AF215WINDAC1AIROUTLETNODE,COIL:COOLING:DX:SINGLESPEED,AF215WINDAC1DXCOIL,Outlet,1
 Non-Parent Node Connection,AF215WINDAC2FANAIROUTLETNODE,COIL:COOLING:DX:SINGLESPEED,AF215WINDAC2DXCOIL,Inlet,1
 Non-Parent Node Connection,AF215WINDAC2AIROUTLETNODE,COIL:COOLING:DX:SINGLESPEED,AF215WINDAC2DXCOIL,Outlet,1
 Non-Parent Node Connection,AF304WINDAC1FANAIROUTLETNODE,COIL:COOLING:DX:SINGLESPEED,AF304WINDAC1DXCOIL,Inlet,1
 Non-Parent Node Connection,AF304WINDAC1AIROUTLETNODE,COIL:COOLING:DX:SINGLESPEED,AF304WINDAC1DXCOIL,Outlet,1
 Non-Parent Node Connection,AF304WINDAC2FANAIROUTLETNODE,COIL:COOLING:DX:SINGLESPEED,AF304WINDAC2DXCOIL,Inlet,1
 Non-Parent Node Connection,AF304WINDAC2AIROUTLETNODE,COIL:COOLING:DX:SINGLESPEED,AF304WINDAC2DXCOIL,Outlet,1
 Non-Parent Node Connection,AF306WINDAC1FANAIROUTLETNODE,COIL:COOLING:DX:SINGLESPEED,AF306WINDAC1DXCOIL,Inlet,1
 Non-Parent Node Connection,AF306WINDAC1AIROUTLETNODE,COIL:COOLING:DX:SINGLESPEED,AF306WINDAC1DXCOIL,Outlet,1
 Non-Parent Node Connection,AF306WINDAC2FANAIROUTLETNODE,COIL:COOLING:DX:SINGLESPEED,AF306WINDAC2DXCOIL,Inlet,1
 Non-Parent Node Connection,AF306WINDAC2AIROUTLETNODE,COIL:COOLING:DX:SINGLESPEED,AF306WINDAC2DXCOIL,Outlet,1
 Non-Parent Node Connection,AF1B12AWINDAC1FANAIROUTLETNODE,COIL:COOLING:DX:SINGLESPEED,AF1B12AWINDAC1DXCOIL,Inlet,1
 Non-Parent Node Connection,AF1B12AWINDAC1AIROUTLETNODE,COIL:COOLING:DX:SINGLESPEED,AF1B12AWINDAC1DXCOIL,Outlet,1
 Non-Parent Node Connection,AF1B12AWINDAC2FANAIROUTLETNODE,COIL:COOLING:DX:SINGLESPEED,AF1B12AWINDAC2DXCOIL,Inlet,1
 Non-Parent Node Connection,AF1B12AWINDAC2AIROUTLETNODE,COIL:COOLING:DX:SINGLESPEED,AF1B12AWINDAC2DXCOIL,Outlet,1
 Non-Parent Node Connection,AF1B12BWINDAC1FANAIROUTLETNODE,COIL:COOLING:DX:SINGLESPEED,AF1B12BWINDAC1DXCOIL,Inlet,1
 Non-Parent Node Connection,AF1B12BWINDAC1AIROUTLETNODE,COIL:COOLING:DX:SINGLESPEED,AF1B12BWINDAC1DXCOIL,Outlet,1
 Non-Parent Node Connection,AF1B12BWINDAC2FANAIROUTLETNODE,COIL:COOLING:DX:SINGLESPEED,AF1B12BWINDAC2DXCOIL,Inlet,1
 Non-Parent Node Connection,AF1B12BWINDAC2AIROUTLETNODE,COIL:COOLING:DX:SINGLESPEED,AF1B12BWINDAC2DXCOIL,Outlet,1
 Non-Parent Node Connection,AF1B12CWINDAC1FANAIROUTLETNODE,COIL:COOLING:DX:SINGLESPEED,AF1B12CWINDAC1DXCOIL,Inlet,1
 Non-Parent Node Connection,AF1B12CWINDAC1AIROUTLETNODE,COIL:COOLING:DX:SINGLESPEED,AF1B12CWINDAC1DXCOIL,Outlet,1
 Non-Parent Node Connection,AF1B12CWINDAC2FANAIROUTLETNODE,COIL:COOLING:DX:SINGLESPEED,AF1B12CWINDAC2DXCOIL,Inlet,1
 Non-Parent Node Connection,AF1B12CWINDAC2AIROUTLETNODE,COIL:COOLING:DX:SINGLESPEED,AF1B12CWINDAC2DXCOIL,Outlet,1
 Non-Parent Node Connection,AF1B12DWINDAC1FANAIROUTLETNODE,COIL:COOLING:DX:SINGLESPEED,AF1B12DWINDAC1DXCOIL,Inlet,1
 Non-Parent Node Connection,AF1B12DWINDAC1AIROUTLETNODE,COIL:COOLING:DX:SINGLESPEED,AF1B12DWINDAC1DXCOIL,Outlet,1
 Non-Parent Node Connection,AF1B12DWINDAC2FANAIROUTLETNODE,COIL:COOLING:DX:SINGLESPEED,AF1B12DWINDAC2DXCOIL,Inlet,1
 Non-Parent Node Connection,AF1B12DWINDAC2AIROUTLETNODE,COIL:COOLING:DX:SINGLESPEED,AF1B12DWINDAC2DXCOIL,Outlet,1
 Non-Parent Node Connection,AF1B12EWINDAC1FANAIROUTLETNODE,COIL:COOLING:DX:SINGLESPEED,AF1B12EWINDAC1DXCOIL,Inlet,1
 Non-Parent Node Connection,AF1B12EWINDAC1AIROUTLETNODE,COIL:COOLING:DX:SINGLESPEED,AF1B12EWINDAC1DXCOIL,Outlet,1
 Non-Parent Node Connection,AF1B12EWINDAC2FANAIROUTLETNODE,COIL:COOLING:DX:SINGLESPEED,AF1B12EWINDAC2DXCOIL,Inlet,1
 Non-Parent Node Connection,AF1B12EWINDAC2AIROUTLETNODE,COIL:COOLING:DX:SINGLESPEED,AF1B12EWINDAC2DXCOIL,Outlet,1
 Non-Parent Node Connection,AF1B12FWINDAC1FANAIROUTLETNODE,COIL:COOLING:DX:SINGLESPEED,AF1B12FWINDAC1DXCOIL,Inlet,1
 Non-Parent Node Connection,AF1B12FWINDAC1AIROUTLETNODE,COIL:COOLING:DX:SINGLESPEED,AF1B12FWINDAC1DXCOIL,Outlet,1
 Non-Parent Node Connection,AF1B12FWINDAC2FANAIROUTLETNODE,COIL:COOLING:DX:SINGLESPEED,AF1B12FWINDAC2DXCOIL,Inlet,1
 Non-Parent Node Connection,AF1B12FWINDAC2AIROUTLETNODE,COIL:COOLING:DX:SINGLESPEED,AF1B12FWINDAC2DXCOIL,Outlet,1
 Non-Parent Node Connection,AFCB1WINDAC1FANAIROUTLETNODE,COIL:COOLING:DX:SINGLESPEED,AFCB1WINDAC1DXCOIL,Inlet,1
 Non-Parent Node Connection,AFCB1WINDAC1AIROUTLETNODE,COIL:COOLING:DX:SINGLESPEED,AFCB1WINDAC1DXCOIL,Outlet,1
 Non-Parent Node Connection,AFCB1WINDAC2FANAIROUTLETNODE,COIL:COOLING:DX:SINGLESPEED,AFCB1WINDAC2DXCOIL,Inlet,1
 Non-Parent Node Connection,AFCB1WINDAC2AIROUTLETNODE,COIL:COOLING:DX:SINGLESPEED,AFCB1WINDAC2DXCOIL,Outlet,1
 Non-Parent Node Connection,AFCB2WINDAC1FANAIROUTLETNODE,COIL:COOLING:DX:SINGLESPEED,AFCB2WINDAC1DXCOIL,Inlet,1
 Non-Parent Node Connection,AFCB2WINDAC1AIROUTLETNODE,COIL:COOLING:DX:SINGLESPEED,AFCB2WINDAC1DXCOIL,Outlet,1
 Non-Parent Node Connection,AFCB2WINDAC2FANAIROUTLETNODE,COIL:COOLING:DX:SINGLESPEED,AFCB2WINDAC2DXCOIL,Inlet,1
 Non-Parent Node Connection,AFCB2WINDAC2AIROUTLETNODE,COIL:COOLING:DX:SINGLESPEED,AFCB2WINDAC2DXCOIL,Outlet,1
 Non-Parent Node Connection,AFCB3WINDAC1FANAIROUTLETNODE,COIL:COOLING:DX:SINGLESPEED,AFCB3WINDAC1DXCOIL,Inlet,1
 Non-Parent Node Connection,AFCB3WINDAC1AIROUTLETNODE,COIL:COOLING:DX:SINGLESPEED,AFCB3WINDAC1DXCOIL,Outlet,1
 Non-Parent Node Connection,AFCB3WINDAC2FANAIROUTLETNODE,COIL:COOLING:DX:SINGLESPEED,AFCB3WINDAC2DXCOIL,Inlet,1
 Non-Parent Node Connection,AFCB3WINDAC2AIROUTLETNODE,COIL:COOLING:DX:SINGLESPEED,AFCB3WINDAC2DXCOIL,Outlet,1
 Non-Parent Node Connection,AFCB4WINDAC1FANAIROUTLETNODE,COIL:COOLING:DX:SINGLESPEED,AFCB4WINDAC1DXCOIL,Inlet,1
 Non-Parent Node Connection,AFCB4WINDAC1AIROUTLETNODE,COIL:COOLING:DX:SINGLESPEED,AFCB4WINDAC1DXCOIL,Outlet,1
 Non-Parent Node Connection,AFCB4WINDAC2FANAIROUTLETNODE,COIL:COOLING:DX:SINGLESPEED,AFCB4WINDAC2DXCOIL,Inlet,1
 Non-Parent Node Connection,AFCB4WINDAC2AIROUTLETNODE,COIL:COOLING:DX:SINGLESPEED,AFCB4WINDAC2DXCOIL,Outlet,1
 Non-Parent Node Connection,CLINICWINDAC1FANAIROUTLETNODE,COIL:COOLING:DX:SINGLESPEED,CLINICWINDAC1DXCOIL,Inlet,1
 Non-Parent Node Connection,CLINICWINDAC1AIROUTLETNODE,COIL:COOLING:DX:SINGLESPEED,CLINICWINDAC1DXCOIL,Outlet,1
 Non-Parent Node Connection,COUNSELORWINDAC1FANAIROUTLETNODE,COIL:COOLING:DX:SINGLESPEED,COUNSELORWINDAC1DXCOIL,Inlet,1
 Non-Parent Node Connection,COUNSELORWINDAC1AIROUTLETNODE,COIL:COOLING:DX:SINGLESPEED,COUNSELORWINDAC1DXCOIL,Outlet,1
 Non-Parent Node Connection,GUIDANCEOFFICEWINDAC1FANAIROUTLETNODE,COIL:COOLING:DX:SINGLESPEED,GUIDANCEOFFICEWINDAC1DXCOIL,Inlet,1
 Non-Parent Node Connection,GUIDANCEOFFICEWINDAC1AIROUTLETNODE,COIL:COOLING:DX:SINGLESPEED,GUIDANCEOFFICEWINDAC1DXCOIL,Outlet,1
 Non-Parent Node Connection,CREATIVEHUBWINDAC1FANAIROUTLETNODE,COIL:COOLING:DX:SINGLESPEED,CREATIVEHUBWINDAC1DXCOIL,Inlet,1
 Non-Parent Node Connection,CREATIVEHUBWINDAC1AIROUTLETNODE,COIL:COOLING:DX:SINGLESPEED,CREATIVEHUBWINDAC1DXCOIL,Outlet,1
 Non-Parent Node Connection,CREATIVEHUBOFFICEWINDAC1FANAIROUTLETNODE,COIL:COOLING:DX:SINGLESPEED,CREATIVEHUBOFFICEWINDAC1DXCOIL,Inlet,1
 Non-Parent Node Connection,CREATIVEHUBOFFICEWINDAC1AIROUTLETNODE,COIL:COOLING:DX:SINGLESPEED,CREATIVEHUBOFFICEWINDAC1DXCOIL,Outlet,1
 Non-Parent Node Connection,DISCUSSIONROOMWINDAC1FANAIROUTLETNODE,COIL:COOLING:DX:SINGLESPEED,DISCUSSIONROOMWINDAC1DXCOIL,Inlet,1
 Non-Parent Node Connection,DISCUSSIONROOMWINDAC1AIROUTLETNODE,COIL:COOLING:DX:SINGLESPEED,DISCUSSIONROOMWINDAC1DXCOIL,Outlet,1
 Non-Parent Node Connection,SERVICEBUREAUWINDAC1FANAIROUTLETNODE,COIL:COOLING:DX:SINGLESPEED,SERVICEBUREAUWINDAC1DXCOIL,Inlet,1
 Non-Parent Node Connection,SERVICEBUREAUWINDAC1AIROUTLETNODE,COIL:COOLING:DX:SINGLESPEED,SERVICEBUREAUWINDAC1DXCOIL,Outlet,1
 Non-Parent Node Connection,SERVICEBUREAUWINDAC2FANAIROUTLETNODE,COIL:COOLING:DX:SINGLESPEED,SERVICEBUREAUWINDAC2DXCOIL,Inlet,1
 Non-Parent Node Connection,SERVICEBUREAUWINDAC2AIROUTLETNODE,COIL:COOLING:DX:SINGLESPEED,SERVICEBUREAUWINDAC2DXCOIL,Outlet,1
 Non-Parent Node Connection,SERVICEBUREAUWINDAC3FANAIROUTLETNODE,COIL:COOLING:DX:SINGLESPEED,SERVICEBUREAUWINDAC3DXCOIL,Inlet,1
 Non-Parent Node Connection,SERVICEBUREAUWINDAC3AIROUTLETNODE,COIL:COOLING:DX:SINGLESPEED,SERVICEBUREAUWINDAC3DXCOIL,Outlet,1
 Non-Parent Node Connection,SERVICEBUREAUWINDAC4FANAIROUTLETNODE,COIL:COOLING:DX:SINGLESPEED,SERVICEBUREAUWINDAC4DXCOIL,Inlet,1
 Non-Parent Node Connection,SERVICEBUREAUWINDAC4AIROUTLETNODE,COIL:COOLING:DX:SINGLESPEED,SERVICEBUREAUWINDAC4DXCOIL,Outlet,1
 Non-Parent Node Connection,ACCWINDAC1FANAIROUTLETNODE,COIL:COOLING:DX:SINGLESPEED,ACCWINDAC1DXCOIL,Inlet,1
 Non-Parent Node Connection,ACCWINDAC1AIROUTLETNODE,COIL:COOLING:DX:SINGLESPEED,ACCWINDAC1DXCOIL,Outlet,1
 Non-Parent Node Connection,ACCWINDAC2FANAIROUTLETNODE,COIL:COOLING:DX:SINGLESPEED,ACCWINDAC2DXCOIL,Inlet,1
 Non-Parent Node Connection,ACCWINDAC2AIROUTLETNODE,COIL:COOLING:DX:SINGLESPEED,ACCWINDAC2DXCOIL,Outlet,1
 Non-Parent Node Connection,FINEARTSDEPTWINDAC1FANAIROUTLETNODE,COIL:COOLING:DX:SINGLESPEED,FINEARTSDEPTWINDAC1DXCOIL,Inlet,1
 Non-Parent Node Connection,FINEARTSDEPTWINDAC1AIROUTLETNODE,COIL:COOLING:DX:SINGLESPEED,FINEARTSDEPTWINDAC1DXCOIL,Outlet,1
 Non-Parent Node Connection,FINEARTSDEPTWINDAC2FANAIROUTLETNODE,COIL:COOLING:DX:SINGLESPEED,FINEARTSDEPTWINDAC2DXCOIL,Inlet,1
 Non-Parent Node Connection,FINEARTSDEPTWINDAC2AIROUTLETNODE,COIL:COOLING:DX:SINGLESPEED,FINEARTSDEPTWINDAC2DXCOIL,Outlet,1
 Non-Parent Node Connection,FINEARTSFACULTYWINDAC1FANAIROUTLETNODE,COIL:COOLING:DX:SINGLESPEED,FINEARTSFACULTYWINDAC1DXCOIL,Inlet,1
 Non-Parent Node Connection,FINEARTSFACULTYWINDAC1AIROUTLETNODE,COIL:COOLING:DX:SINGLESPEED,FINEARTSFACULTYWINDAC1DXCOIL,Outlet,1
 Non-Parent Node Connection,FINEARTSFACULTYWINDAC2FANAIROUTLETNODE,COIL:COOLING:DX:SINGLESPEED,FINEARTSFACULTYWINDAC2DXCOIL,Inlet,1
 Non-Parent Node Connection,FINEARTSFACULTYWINDAC2AIROUTLETNODE,COIL:COOLING:DX:SINGLESPEED,FINEARTSFACULTYWINDAC2DXCOIL,Outlet,1
 Non-Parent Node Connection,ARCHIFACULTYWINDAC1FANAIROUTLETNODE,COIL:COOLING:DX:SINGLESPEED,ARCHIFACULTYWINDAC1DXCOIL,Inlet,1
 Non-Parent Node Connection,ARCHIFACULTYWINDAC1AIROUTLETNODE,COIL:COOLING:DX:SINGLESPEED,ARCHIFACULTYWINDAC1DXCOIL,Outlet,1
 Non-Parent Node Connection,ARCHIFACULTYWINDAC2FANAIROUTLETNODE,COIL:COOLING:DX:SINGLESPEED,ARCHIFACULTYWINDAC2DXCOIL,Inlet,1
 Non-Parent Node Connection,ARCHIFACULTYWINDAC2AIROUTLETNODE,COIL:COOLING:DX:SINGLESPEED,ARCHIFACULTYWINDAC2DXCOIL,Outlet,1
 Non-Parent Node Connection,ARCHIFACULTYWINDAC3FANAIROUTLETNODE,COIL:COOLING:DX:SINGLESPEED,ARCHIFACULTYWINDAC3DXCOIL,Inlet,1
 Non-Parent Node Connection,ARCHIFACULTYWINDAC3AIROUTLETNODE,COIL:COOLING:DX:SINGLESPEED,ARCHIFACULTYWINDAC3DXCOIL,Outlet,1
 Non-Parent Node Connection,ARCHIDEPTWINDAC1FANAIROUTLETNODE,COIL:COOLING:DX:SINGLESPEED,ARCHIDEPTWINDAC1DXCOIL,Inlet,1
 Non-Parent Node Connection,ARCHIDEPTWINDAC1AIROUTLETNODE,COIL:COOLING:DX:SINGLESPEED,ARCHIDEPTWINDAC1DXCOIL,Outlet,1
 Non-Parent Node Connection,ARCHIDEPTWINDAC2FANAIROUTLETNODE,COIL:COOLING:DX:SINGLESPEED,ARCHIDEPTWINDAC2DXCOIL,Inlet,1
 Non-Parent Node Connection,ARCHIDEPTWINDAC2AIROUTLETNODE,COIL:COOLING:DX:SINGLESPEED,ARCHIDEPTWINDAC2DXCOIL,Outlet,1
 Non-Parent Node Connection,DEANSECWINDAC1FANAIROUTLETNODE,COIL:COOLING:DX:SINGLESPEED,DEANSECWINDAC1DXCOIL,Inlet,1
 Non-Parent Node Connection,DEANSECWINDAC1AIROUTLETNODE,COIL:COOLING:DX:SINGLESPEED,DEANSECWINDAC1DXCOIL,Outlet,1
 Non-Parent Node Connection,SAFADCONFWINDAC1FANAIROUTLETNODE,COIL:COOLING:DX:SINGLESPEED,SAFADCONFWINDAC1DXCOIL,Inlet,1
 Non-Parent Node Connection,SAFADCONFWINDAC1AIROUTLETNODE,COIL:COOLING:DX:SINGLESPEED,SAFADCONFWINDAC1DXCOIL,Outlet,1
 Non-Parent Node Connection,DEANOFFICEWINDAC1FANAIROUTLETNODE,COIL:COOLING:DX:SINGLESPEED,DEANOFFICEWINDAC1DXCOIL,Inlet,1
 Non-Parent Node Connection,DEANOFFICEWINDAC1AIROUTLETNODE,COIL:COOLING:DX:SINGLESPEED,DEANOFFICEWINDAC1DXCOIL,Outlet,1
 Non-Parent Node Connection,AUXOFFICESWINDAC1FANAIROUTLETNODE,COIL:COOLING:DX:SINGLESPEED,AUXOFFICESWINDAC1DXCOIL,Inlet,1
 Non-Parent Node Connection,AUXOFFICESWINDAC1AIROUTLETNODE,COIL:COOLING:DX:SINGLESPEED,AUXOFFICESWINDAC1DXCOIL,Outlet,1
 Non-Parent Node Connection,AUXOFFICESWINDAC2FANAIROUTLETNODE,COIL:COOLING:DX:SINGLESPEED,AUXOFFICESWINDAC2DXCOIL,Inlet,1
 Non-Parent Node Connection,AUXOFFICESWINDAC2AIROUTLETNODE,COIL:COOLING:DX:SINGLESPEED,AUXOFFICESWINDAC2DXCOIL,Outlet,1
 Non-Parent Node Connection,AUXOFFICESWINDAC3FANAIROUTLETNODE,COIL:COOLING:DX:SINGLESPEED,AUXOFFICESWINDAC3DXCOIL,Inlet,1
 Non-Parent Node Connection,AUXOFFICESWINDAC3AIROUTLETNODE,COIL:COOLING:DX:SINGLESPEED,AUXOFFICESWINDAC3DXCOIL,Outlet,1
 Non-Parent Node Connection,IPDWINDAC1FANAIROUTLETNODE,COIL:COOLING:DX:SINGLESPEED,IPDWINDAC1DXCOIL,Inlet,1
 Non-Parent Node Connection,IPDWINDAC1AIROUTLETNODE,COIL:COOLING:DX:SINGLESPEED,IPDWINDAC1DXCOIL,Outlet,1
 Non-Parent Node Connection,IPDWINDAC2FANAIROUTLETNODE,COIL:COOLING:DX:SINGLESPEED,IPDWINDAC2DXCOIL,Inlet,1
 Non-Parent Node Connection,IPDWINDAC2AIROUTLETNODE,COIL:COOLING:DX:SINGLESPEED,IPDWINDAC2DXCOIL,Outlet,1
 Non-Parent Node Connection,VPPFWINDAC1FANAIROUTLETNODE,COIL:COOLING:DX:SINGLESPEED,VPPFWINDAC1DXCOIL,Inlet,1
 Non-Parent Node Connection,VPPFWINDAC1AIROUTLETNODE,COIL:COOLING:DX:SINGLESPEED,VPPFWINDAC1DXCOIL,Outlet,1
 Non-Parent Node Connection,FILMROOMWINDACFANAIROUTLETNODE,COIL:COOLING:DX:SINGLESPEED,FILMROOMWINDACDXCOIL,Inlet,1
 Non-Parent Node Connection,FILMROOMWINDACAIROUTLETNODE,COIL:COOLING:DX:SINGLESPEED,FILMROOMWINDACDXCOIL,Outlet,1
 Non-Parent Node Connection,SERVERROOMWINDACFANAIROUTLETNODE,COIL:COOLING:DX:SINGLESPEED,SERVERROOMWINDACDXCOIL,Inlet,1
 Non-Parent Node Connection,SERVERROOMWINDACAIROUTLETNODE,COIL:COOLING:DX:SINGLESPEED,SERVERROOMWINDACDXCOIL,Outlet,1
 Non-Parent Node Connection,LOCKEDROOMWINDACFANAIROUTLETNODE,COIL:COOLING:DX:SINGLESPEED,LOCKEDROOMWINDACDXCOIL,Inlet,1
 Non-Parent Node Connection,LOCKEDROOMAIROUTLETNODE,COIL:COOLING:DX:SINGLESPEED,LOCKEDROOMWINDACDXCOIL,Outlet,1
