Program Version,EnergyPlus, Version 8.7.0-78a111df4a, YMD=2019.11.25 11:55
! <Version>, Version ID
 Version, 8.7
! <Timesteps per Hour>, #TimeSteps, Minutes per TimeStep {minutes}
 Timesteps per Hour,  6, 10
! <System Convergence Limits>, Minimum System TimeStep {minutes}, Max HVAC Iterations, Minimum Plant Iterations, Maximum Plant Iterations
 System Convergence Limits, 1, 20, 2, 8
! <Simulation Control>, Do Zone Sizing, Do System Sizing, Do Plant Sizing, Do Design Days, Do Weather Simulation, Do HVAC Sizing Simulation
 Simulation Control, No, No, No, No, Yes, No
! <Output Reporting Tolerances>, Tolerance for Time Heating Setpoint Not Met, Tolerance for Zone Cooling Setpoint Not Met Time
 Output Reporting Tolerances, 0.200, 0.200, 
! <Site:GroundTemperature:BuildingSurface>,Jan{C},Feb{C},Mar{C},Apr{C},May{C},Jun{C},Jul{C},Aug{C},Sep{C},Oct{C},Nov{C},Dec{C}
 Site:GroundTemperature:BuildingSurface,  18.00,  18.00,  18.00,  18.00,  18.00,  18.00,  18.00,  18.00,  18.00,  18.00,  18.00,  18.00
! <Site:GroundTemperature:FCfactorMethod>,Jan{C},Feb{C},Mar{C},Apr{C},May{C},Jun{C},Jul{C},Aug{C},Sep{C},Oct{C},Nov{C},Dec{C}
 Site:GroundTemperature:FCfactorMethod,  28.72,  29.17,  29.28,  29.16,  28.51,  27.79,  27.13,  26.66,  26.53,  26.78,  27.34,  28.03
! <Site:GroundTemperature:Shallow>,Jan{C},Feb{C},Mar{C},Apr{C},May{C},Jun{C},Jul{C},Aug{C},Sep{C},Oct{C},Nov{C},Dec{C}
 Site:GroundTemperature:Shallow,  13.00,  13.00,  13.00,  13.00,  13.00,  13.00,  13.00,  13.00,  13.00,  13.00,  13.00,  13.00
! <Site:GroundTemperature:Deep>,Jan{C},Feb{C},Mar{C},Apr{C},May{C},Jun{C},Jul{C},Aug{C},Sep{C},Oct{C},Nov{C},Dec{C}
 Site:GroundTemperature:Deep,  16.00,  16.00,  16.00,  16.00,  16.00,  16.00,  16.00,  16.00,  16.00,  16.00,  16.00,  16.00
! <Site:GroundReflectance>,Jan{dimensionless},Feb{dimensionless},Mar{dimensionless},Apr{dimensionless},May{dimensionless},Jun{dimensionless},Jul{dimensionless},Aug{dimensionless},Sep{dimensionless},Oct{dimensionless},Nov{dimensionless},Dec{dimensionless}
 Site:GroundReflectance,  0.20,  0.20,  0.20,  0.20,  0.20,  0.20,  0.20,  0.20,  0.20,  0.20,  0.20,  0.20
! <Site:GroundReflectance:SnowModifier>, Normal, Daylighting {dimensionless}
 Site:GroundReflectance:SnowModifier,   1.000,   1.000
! <Site:GroundReflectance:Snow>,Jan{dimensionless},Feb{dimensionless},Mar{dimensionless},Apr{dimensionless},May{dimensionless},Jun{dimensionless},Jul{dimensionless},Aug{dimensionless},Sep{dimensionless},Oct{dimensionless},Nov{dimensionless},Dec{dimensionless}
 Site:GroundReflectance:Snow,  0.20,  0.20,  0.20,  0.20,  0.20,  0.20,  0.20,  0.20,  0.20,  0.20,  0.20,  0.20
! <Site:GroundReflectance:Snow:Daylighting>,Jan{dimensionless},Feb{dimensionless},Mar{dimensionless},Apr{dimensionless},May{dimensionless},Jun{dimensionless},Jul{dimensionless},Aug{dimensionless},Sep{dimensionless},Oct{dimensionless},Nov{dimensionless},Dec{dimensionless}
 Site:GroundReflectance:Snow:Daylighting,  0.20,  0.20,  0.20,  0.20,  0.20,  0.20,  0.20,  0.20,  0.20,  0.20,  0.20,  0.20
! <Environment:Weather Station>,Wind Sensor Height Above Ground {m},Wind Speed Profile Exponent {},Wind Speed Profile Boundary Layer Thickness {m},Air Temperature Sensor Height Above Ground {m},Wind Speed Modifier Coefficient-Internal,Temperature Modifier Coefficient-Internal
Environment:Weather Station,10.000,0.140,270.000,1.500,1.586,9.750E-003
! <Site:Location>, Location Name, Latitude {N+/S- Deg}, Longitude {E+/W- Deg},  Time Zone Number {GMT+/-}, Elevation {m},  Standard Pressure at Elevation {Pa}, Standard RhoAir at Elevation
Site:Location,MACTAN - PHL IWEC2 WMO#=986460,10.30,123.97,8.00,24.00,101037,1.2009
! <Building Information>, Building Name,North Axis {deg},Terrain,  Loads Convergence Tolerance Value,Temperature Convergence Tolerance Value,  Solar Distribution,Maximum Number of Warmup Days,Minimum Number of Warmup Days
 Building Information,SAFAD Building,15.000,City,4.00000E-002,0.40000,FullInteriorAndExterior,25,6
! <Inside Convection Algorithm>, Algorithm {Simple | TARP | CeilingDiffuser | AdaptiveConvectionAlgorithm}
Inside Convection Algorithm,TARP
! <Outside Convection Algorithm>, Algorithm {SimpleCombined | TARP | MoWitt | DOE-2 | AdaptiveConvectionAlgorithm}
Outside Convection Algorithm,DOE-2
! <Sky Radiance Distribution>, Value {Anisotropic}
Sky Radiance Distribution,Anisotropic
! <Zone Air Solution Algorithm>, Value {ThirdOrderBackwardDifference | AnalyticalSolution | EulerMethod}
 Zone Air Solution Algorithm, ThirdOrderBackwardDifference
! <Zone Air Carbon Dioxide Balance Simulation>, Simulation {Yes/No}, Carbon Dioxide Concentration
 Zone Air Carbon Dioxide Balance Simulation, No,N/A
! <Zone Air Generic Contaminant Balance Simulation>, Simulation {Yes/No}, Generic Contaminant Concentration
 Zone Air Generic Contaminant Balance Simulation, No,N/A
! <Zone Air Mass Flow Balance Simulation>, Enforce Mass Balance, Adjust Zone Mixing, Adjust Zone Infiltration {AddInfiltration | AdjustInfiltration | None}, Infiltration Zones {MixingSourceZonesOnly | AllZones}
 Zone Air Mass Flow Balance Simulation, No,N/A,N/A,N/A
! <Environment:Site Atmospheric Variation>,Wind Speed Profile Exponent {},Wind Speed Profile Boundary Layer Thickness {m},Air Temperature Gradient Coefficient {K/m}
Environment:Site Atmospheric Variation,0.330,460.000,6.500000E-003
! <Surface Geometry>,Starting Corner,Vertex Input Direction,Coordinate System,Daylight Reference Point Coordinate System,Rectangular (Simple) Surface Coordinate System
 Surface Geometry,UpperLeftCorner,Counterclockwise,RelativeCoordinateSystem,RelativeCoordinateSystem,RelativeToZoneOrigin
! <Surface Heat Transfer Algorithm>, Value {CTF - ConductionTransferFunction | EMPD - MoisturePenetrationDepthConductionTransferFunction | CondFD - ConductionFiniteDifference | HAMT - CombinedHeatAndMoistureFiniteElement} - Description,Inside Surface Max Temperature Limit{C}, Surface Convection Coefficient Lower Limit {W/m2-K}, Surface Convection Coefficient Upper Limit {W/m2-K}
Surface Heat Transfer Algorithm, CTF - ConductionTransferFunction,200,0.10,1000.0
! <Shading Summary>, Number of Fixed Detached Shades, Number of Building Detached Shades, Number of Attached Shades
 Shading Summary,0,164,0
! <Zone Summary>, Number of Zones, Number of Zone Surfaces, Number of SubSurfaces
 Zone Summary,77,576,118
! <Zone Information>,Zone Name,North Axis {deg},Origin X-Coordinate {m},Origin Y-Coordinate {m},Origin Z-Coordinate {m},Centroid X-Coordinate {m},Centroid Y-Coordinate {m},Centroid Z-Coordinate {m},Type,Zone Multiplier,Zone List Multiplier,Minimum X {m},Maximum X {m},Minimum Y {m},Maximum Y {m},Minimum Z {m},Maximum Z {m},Ceiling Height {m},Volume {m3},Zone Inside Convection Algorithm {Simple-Detailed-CeilingDiffuser-TrombeWall},Zone Outside Convection Algorithm {Simple-Detailed-Tarp-MoWitt-DOE-2-BLAST}, Floor Area {m2},Exterior Gross Wall Area {m2},Exterior Net Wall Area {m2},Exterior Window Area {m2}, Number of Surfaces, Number of SubSurfaces, Number of Shading SubSurfaces,  Part of Total Building Area
 Zone Information, AF1B12F,0.0,111.99,31.01,0.00,40.66,-51.03,8.21,1,1,1,32.60,49.21,-59.55,-42.97,6.03,10.39,4.36,600.02,TARP,DOE-2,137.62,158.29,90.69,67.60,6,2,0,Yes
 Zone Information, AF1B05,0.0,49.08,32.39,0.00,-23.88,-11.62,8.21,1,1,1,-30.44,-17.33,-17.51,-5.73,6.03,10.39,4.36,345.65,TARP,DOE-2,79.28,110.87,66.87,44.00,6,3,0,Yes
 Zone Information, AF1B04,0.0,38.13,39.63,0.00,-20.93,-4.98,8.21,1,1,1,-26.78,-15.07,-10.45,0.48,6.03,10.39,4.36,293.52,TARP,DOE-2,67.32,62.78,48.98,13.80,6,2,0,Yes
 Zone Information, AF1B03,0.0,38.13,46.83,0.00,-17.41,1.02,8.21,1,1,1,-23.14,-11.68,-4.24,6.28,6.03,10.39,4.36,273.95,TARP,DOE-2,62.83,99.36,86.56,12.80,6,1,0,Yes
 Zone Information, AF1B01,0.0,38.13,67.46,0.00,-12.68,11.20,8.21,1,1,1,-18.88,-6.48,4.11,18.29,6.03,10.39,4.36,384.48,TARP,DOE-2,88.18,116.22,103.42,12.80,6,1,0,Yes
 Zone Information, AF1B02,0.0,45.36,55.26,0.00,-6.56,7.61,8.21,1,1,1,-12.64,-0.48,0.59,14.63,6.03,10.39,4.36,369.59,TARP,DOE-2,84.77,113.78,113.78,0.00,6,0,0,Yes
 Zone Information, AF1B12B,0.0,123.57,79.34,0.00,62.15,-5.45,8.21,1,1,1,56.19,67.90,-14.64,3.25,6.03,10.39,4.36,795.42,TARP,DOE-2,182.44,144.56,54.56,90.00,6,2,0,Yes
 Zone Information, AF1B12A,0.0,103.14,108.65,0.00,60.82,11.02,8.21,1,1,1,53.65,67.90,2.38,20.97,6.03,10.39,4.36,806.73,TARP,DOE-2,185.03,194.16,104.16,90.00,6,2,0,Yes
 Zone Information, AF1B10A-AF1B10B_1,0.0,109.86,54.08,0.00,39.87,-24.63,5.45,1,1,1,34.36,45.42,-29.51,-20.18,3.27,7.63,4.36,219.60,TARP,DOE-2,50.37,87.06,76.26,10.80,6,1,0,Yes
 Zone Information, AF1B10A-AF1B10B_2,0.0,109.86,60.01,0.00,42.15,-19.53,5.45,1,1,1,36.27,47.90,-24.39,-15.12,3.27,7.63,4.36,266.27,TARP,DOE-2,61.07,53.07,42.27,10.80,6,1,0,Yes
 Zone Information, AF1B10A-AF1B10B_4,0.0,106.93,73.17,0.00,44.99,-7.62,5.45,1,1,1,39.38,50.31,-11.56,-4.33,3.27,7.63,4.36,277.28,TARP,DOE-2,63.60,53.62,42.82,10.80,6,1,0,Yes
 Zone Information, AF1B10A-AF1B10B_5,0.0,104.16,79.43,0.00,45.32,-1.53,5.45,1,1,1,39.90,50.31,-4.76,1.89,3.27,7.63,4.36,272.41,TARP,DOE-2,62.48,97.47,86.67,10.80,6,1,0,Yes
 Zone Information, AF1B10A-AF1B10B_3,0.0,108.85,66.64,0.00,43.99,-13.68,5.45,1,1,1,38.34,49.54,-18.16,-9.77,3.27,7.63,4.36,270.97,TARP,DOE-2,62.15,53.43,42.63,10.80,6,1,0,Yes
 Zone Information, CONSERVATION LAB,0.0,96.52,90.27,0.00,42.33,13.29,5.45,1,1,1,35.49,49.20,6.37,21.32,3.27,7.63,4.36,542.89,TARP,DOE-2,124.52,196.38,176.38,20.00,6,2,0,Yes
 Zone Information, AF1B12E,0.0,126.28,39.49,0.00,49.23,-41.81,8.21,1,1,1,41.32,57.47,-50.41,-33.64,6.03,10.39,4.36,595.32,TARP,DOE-2,136.54,109.22,57.52,51.70,6,2,0,Yes
 Zone Information, AF1B12D,0.0,128.11,52.70,0.00,55.78,-31.43,8.21,1,1,1,48.40,63.34,-39.93,-23.74,6.03,10.39,4.36,580.26,TARP,DOE-2,133.09,105.68,43.68,62.00,6,2,0,Yes
 Zone Information, AF101,0.0,52.31,67.46,4.36,-5.77,8.96,12.01,1,1,1,-11.06,-0.48,3.29,14.63,10.39,13.63,3.24,204.37,TARP,DOE-2,63.08,74.44,59.69,14.75,6,2,0,Yes
 Zone Information, AF102,0.0,38.13,67.46,4.36,-11.89,12.54,12.01,1,1,1,-17.30,-6.48,6.80,18.29,10.39,13.63,3.24,212.61,TARP,DOE-2,65.62,76.26,45.11,31.15,6,3,0,Yes
 Zone Information, AF103,0.0,38.13,55.42,4.36,-17.42,3.10,12.01,1,1,1,-22.27,-12.56,-1.69,7.89,10.39,13.63,3.24,160.93,TARP,DOE-2,49.67,67.94,51.99,15.95,6,2,0,Yes
 Zone Information, AF104,0.0,45.36,41.94,4.36,-20.82,-2.71,12.01,1,1,1,-25.61,-16.04,-7.39,1.96,10.39,13.63,3.24,154.76,TARP,DOE-2,47.76,42.81,26.86,15.95,6,2,0,Yes
 Zone Information, ACC OFFICE,0.0,96.52,90.27,4.36,42.32,13.29,9.25,1,1,1,35.49,49.20,6.37,21.32,7.63,10.87,3.24,403.43,TARP,DOE-2,124.52,145.93,125.93,20.00,6,2,0,Yes
 Zone Information, SERVICE BUREAU,0.0,99.26,86.91,4.36,45.08,-1.68,9.25,1,1,1,39.72,50.01,-7.45,4.17,7.63,10.87,3.24,342.82,TARP,DOE-2,105.81,100.25,90.25,10.00,6,1,0,Yes
 Zone Information, AF111,0.0,107.44,71.43,4.36,44.60,-9.61,9.25,1,1,1,39.07,50.01,-13.31,-6.27,7.63,10.87,3.24,184.20,TARP,DOE-2,56.85,35.85,24.65,11.20,6,2,0,Yes
 Zone Information, AF109B,0.0,108.97,65.83,4.36,42.01,-19.89,9.25,1,1,1,36.27,47.59,-24.39,-15.80,7.63,10.87,3.24,172.64,TARP,DOE-2,53.28,34.39,23.19,11.20,6,2,0,Yes
 Zone Information, AF109A,0.0,109.86,60.01,4.36,39.87,-24.63,9.25,1,1,1,34.36,45.42,-29.51,-20.18,7.63,10.87,3.24,163.19,TARP,DOE-2,50.37,64.69,49.49,15.20,6,3,0,Yes
 Zone Information, CREATIVE HUB,0.0,101.56,29.74,4.36,11.36,-33.04,12.01,1,1,1,-6.13,29.18,-46.32,-17.78,10.39,13.63,3.24,1209.87,TARP,DOE-2,373.42,309.55,309.55,0.00,8,0,0,Yes
 Zone Information, AF211,0.0,101.56,29.74,7.60,22.99,-39.20,15.25,1,1,1,16.79,29.18,-46.32,-32.09,13.63,16.87,3.24,284.81,TARP,DOE-2,87.90,86.15,72.15,14.00,6,2,0,Yes
 Zone Information, AF210,0.0,87.29,29.74,7.60,16.83,-35.60,15.25,1,1,1,10.64,23.02,-42.72,-28.48,13.63,16.87,3.24,284.81,TARP,DOE-2,87.90,46.23,32.23,14.00,6,2,0,Yes
 Zone Information, AF209,0.0,80.29,32.73,7.60,11.49,-30.74,15.25,1,1,1,6.11,16.86,-36.53,-24.95,13.63,16.87,3.24,211.40,TARP,DOE-2,65.25,45.32,31.32,14.00,6,2,0,Yes
 Zone Information, AF208,0.0,73.06,32.73,7.60,5.35,-27.14,15.25,1,1,1,-0.13,10.83,-33.00,-21.29,13.63,16.87,3.24,218.81,TARP,DOE-2,67.53,46.91,32.91,14.00,6,2,0,Yes
 Zone Information, AF207,0.0,66.11,32.73,7.60,-0.77,-23.56,15.25,1,1,1,-6.13,4.58,-29.34,-17.78,13.63,16.87,3.24,210.04,TARP,DOE-2,64.83,75.25,61.25,14.00,6,2,0,Yes
 Zone Information, FINE ARTS DEPARTMENT,0.0,49.08,32.39,7.60,-22.69,-9.59,15.25,1,1,1,-30.44,-14.95,-17.51,-1.66,13.63,16.87,3.24,423.99,TARP,DOE-2,130.86,112.92,57.78,55.14,6,4,0,Yes
 Zone Information, FACULTY ROOM_FINE ARTS,0.0,38.13,55.42,7.60,-16.88,0.35,15.25,1,1,1,-24.40,-9.35,-7.20,7.89,13.63,16.87,3.24,392.83,TARP,DOE-2,121.24,107.23,85.79,21.44,6,1,0,Yes
 Zone Information, AF215,0.0,85.99,99.01,7.60,42.32,13.29,12.49,1,1,1,35.49,49.20,6.37,21.32,10.87,14.11,3.24,403.43,TARP,DOE-2,124.52,112.86,110.36,2.50,6,1,0,Yes
 Zone Information, AF214,0.0,94.77,74.52,7.60,44.76,1.44,12.49,1,1,1,39.20,49.97,-4.84,8.46,10.87,14.11,3.24,393.62,TARP,DOE-2,121.49,77.59,75.09,2.50,6,1,0,Yes
 Zone Information, AF213,0.0,108.78,66.54,7.60,44.15,-10.61,12.49,1,1,1,38.22,49.97,-18.22,-4.25,10.87,14.11,3.24,400.14,TARP,DOE-2,123.50,79.46,76.96,2.50,6,1,0,Yes
 Zone Information, AF212,0.0,108.78,66.54,7.60,40.94,-21.79,12.49,1,1,1,34.36,47.78,-29.51,-15.11,10.87,14.11,3.24,352.53,TARP,DOE-2,108.80,103.55,101.05,2.50,6,1,0,Yes
 Zone Information, DEAN OFFICE,0.0,62.79,62.38,7.60,5.84,6.31,15.25,1,1,1,1.51,10.18,1.43,11.19,13.63,16.87,3.24,139.21,TARP,DOE-2,42.96,43.62,28.72,14.90,6,2,0,Yes
 Zone Information, SAFAD CONFERENCE ROOM,0.0,57.59,70.64,7.60,1.32,8.96,15.25,1,1,1,-3.05,5.69,4.06,13.86,13.63,16.87,3.24,141.48,TARP,DOE-2,43.67,61.02,45.96,15.06,6,2,0,Yes
 Zone Information, DEAN SECRETARY OFFICE,0.0,62.79,58.39,7.60,0.47,2.36,15.25,1,1,1,-5.07,6.00,-2.01,6.73,13.63,16.87,3.24,135.64,TARP,DOE-2,41.86,46.91,46.91,0.00,6,0,0,Yes
 Zone Information, ARCHITECTURE DEPARTMENT,0.0,62.79,67.46,7.60,10.07,-0.32,15.25,1,1,1,3.98,16.17,-6.46,5.82,13.63,16.87,3.24,258.89,TARP,DOE-2,79.91,57.05,43.05,14.00,6,2,0,Yes
 Zone Information, FACULTY ROOM_ARCHITECTURE,0.0,66.11,44.34,7.60,10.20,-10.12,15.25,1,1,1,-0.26,20.85,-21.32,1.37,13.63,16.87,3.24,656.66,TARP,DOE-2,202.67,173.39,121.83,51.56,11,3,0,Yes
 Zone Information, AUXILLIARY OFFICES,0.0,38.13,58.39,7.60,-8.89,10.79,15.25,1,1,1,-17.30,-0.48,3.29,18.29,13.63,16.87,3.24,416.98,TARP,DOE-2,128.70,121.29,81.69,39.60,6,3,0,Yes
 Zone Information, AF304,0.0,38.13,67.46,10.84,-8.89,10.79,18.26,1,1,1,-17.30,-0.48,3.29,18.29,16.87,19.65,2.78,357.78,TARP,DOE-2,128.70,104.07,64.47,39.60,6,3,0,Yes
 Zone Information, AF306,0.0,62.79,67.46,10.84,12.42,-1.69,18.26,1,1,1,3.98,20.85,-9.21,5.82,16.87,19.65,2.78,359.17,TARP,DOE-2,129.20,104.38,56.74,47.64,6,4,0,Yes
 Zone Information, VPPF,0.0,49.08,45.83,10.84,-16.50,0.99,18.26,1,1,1,-23.65,-9.35,-5.91,7.89,16.87,19.65,2.78,291.79,TARP,DOE-2,104.96,83.74,65.26,18.48,6,1,0,Yes
 Zone Information, IPD_CR,0.0,49.08,41.94,10.84,-19.91,-4.83,18.26,1,1,1,-25.61,-14.20,-9.27,-0.38,16.87,19.65,2.78,118.47,TARP,DOE-2,42.61,21.64,14.92,6.72,6,1,0,Yes
 Zone Information, IPD,0.0,49.08,32.39,10.84,-23.30,-10.62,18.26,1,1,1,-30.44,-16.17,-17.51,-3.74,16.87,19.65,2.78,290.60,TARP,DOE-2,104.53,83.52,32.12,51.40,6,3,0,Yes
 Zone Information, AF307,0.0,77.03,58.39,10.84,9.77,-10.43,18.26,1,1,1,2.45,16.27,-16.69,-3.69,16.87,19.65,2.78,325.93,TARP,DOE-2,94.78,24.12,16.87,7.26,5,1,0,Yes
 Zone Information, AF2B06,0.0,122.17,26.48,-7.63,39.04,-52.40,4.39,1,1,1,32.60,45.73,-59.55,-45.47,2.76,6.03,3.27,298.84,TARP,DOE-2,91.39,90.83,74.83,16.00,6,2,0,Yes
 Zone Information, AF2B07A,0.0,114.48,38.29,-7.63,46.40,-45.77,4.40,1,1,1,38.42,53.99,-53.56,-37.74,2.76,6.03,3.27,1067.34,TARP,DOE-2,123.30,40.47,19.47,21.00,5,1,0,Yes
 Zone Information, PAINTING STUDIO_1,0.0,109.86,54.08,-7.63,41.70,-18.72,1.64,1,1,1,34.36,49.54,-29.51,-9.77,0.00,3.27,3.27,551.71,TARP,DOE-2,168.72,144.42,144.42,0.00,6,0,0,Yes
 Zone Information, PAINTING STUDIO_2,0.0,97.26,69.59,-7.63,45.04,-4.60,1.64,1,1,1,39.38,50.28,-11.56,1.89,0.00,3.27,3.27,406.44,TARP,DOE-2,124.29,113.23,113.23,0.00,6,0,0,Yes
 Zone Information, PAINTING STUDIO_3,0.0,96.52,90.27,-7.63,42.32,13.29,1.64,1,1,1,35.49,49.20,6.37,21.32,0.00,3.27,3.27,407.17,TARP,DOE-2,124.52,147.29,147.29,0.00,6,0,0,Yes
 Zone Information, AF2B07B,0.0,127.34,47.13,-7.63,53.70,-35.62,4.40,1,1,1,45.29,61.47,-44.34,-27.09,2.76,6.03,3.27,1262.76,TARP,DOE-2,146.86,47.68,26.68,21.00,5,1,0,Yes
 Zone Information, CANTEEN,0.0,121.69,83.63,-10.39,60.60,4.88,1.38,1,1,1,53.65,67.56,-9.99,20.97,0.00,2.76,2.76,303.48,TARP,DOE-2,313.13,30.80,30.80,0.00,4,0,0,Yes
 Zone Information, GENERATOR AND EE ROOM,0.0,122.17,26.48,-10.39,40.21,-51.36,1.38,1,1,1,32.60,48.26,-59.55,-43.55,0.00,2.76,2.76,347.17,TARP,DOE-2,125.79,124.08,124.08,0.00,6,0,0,Yes
 Zone Information, AF308,0.0,66.11,49.71,6.48,6.18,-16.46,18.26,1,1,1,-0.26,11.88,-21.32,-11.17,16.87,19.65,2.78,201.52,TARP,DOE-2,58.60,45.28,45.28,0.00,5,0,0,Yes
 Zone Information, AF1B12C,0.0,127.16,65.93,-4.36,60.14,-19.89,8.21,1,1,1,53.12,67.01,-28.03,-12.86,6.03,10.39,4.36,601.08,TARP,DOE-2,137.86,109.81,45.81,64.00,6,2,0,Yes
 Zone Information, AF110,0.0,50.87,-5.96,7.63,43.66,-14.89,9.25,1,1,1,38.06,49.10,-18.92,-11.35,7.63,10.87,3.24,169.63,TARP,DOE-2,52.36,33.59,23.99,9.60,6,2,0,Yes
 Zone Information, AF2B07C,0.0,56.78,-12.83,2.76,59.09,-23.95,4.40,1,1,1,51.53,65.68,-31.83,-16.53,2.76,6.03,3.27,1130.29,TARP,DOE-2,133.29,42.90,21.90,21.00,5,1,0,Yes
 Zone Information, AF2B07D,0.0,57.36,-1.74,2.76,61.65,-11.41,4.40,1,1,1,54.96,67.01,-19.40,-4.39,2.76,6.03,3.27,1226.12,TARP,DOE-2,147.08,47.69,26.69,21.00,5,1,0,Yes
 Zone Information, AF2B07E,0.0,55.19,10.24,2.76,61.56,1.16,4.40,1,1,1,54.82,67.01,-4.88,7.53,2.76,6.03,3.27,1065.11,TARP,DOE-2,127.07,40.80,19.80,21.00,5,1,0,Yes
 Zone Information, AF2B07F,0.0,51.31,20.32,2.76,60.32,13.22,4.40,1,1,1,53.65,65.66,6.35,20.97,2.76,6.03,3.27,1101.05,TARP,DOE-2,133.73,80.71,59.71,21.00,5,1,0,Yes
 Zone Information, GUIDANCE OFFICE,0.0,-15.74,-22.35,10.39,-20.58,-12.22,12.01,1,1,1,-24.99,-16.16,-17.51,-6.93,10.39,13.63,3.24,143.52,TARP,DOE-2,44.30,91.93,69.03,22.90,6,2,0,Yes
 Zone Information, CLINIC,0.0,-17.69,-11.91,10.39,-22.22,-8.26,12.01,1,1,1,-24.27,-20.17,-10.71,-5.82,10.39,13.63,3.24,31.13,TARP,DOE-2,9.61,42.60,42.60,0.00,6,0,0,Yes
 Zone Information, GUIDANCE CONFERENCE,0.0,-20.96,-15.55,10.39,-24.94,-6.67,12.01,1,1,1,-27.83,-22.06,-9.60,-3.74,10.39,13.63,3.24,58.42,TARP,DOE-2,18.03,55.06,49.06,6.00,6,1,0,Yes
 Zone Information, GUIDANCE CONSELOR,0.0,-26.30,-19.45,10.39,-26.41,-11.34,12.01,1,1,1,-30.44,-22.38,-15.16,-7.52,10.39,13.63,3.24,105.63,TARP,DOE-2,32.60,74.37,53.73,20.64,6,2,0,Yes
 Zone Information, FIRST FLOOR CR,0.0,37.42,-26.92,10.39,29.86,-41.25,12.01,1,1,1,24.68,35.04,-46.80,-35.69,10.39,13.63,3.24,195.65,TARP,DOE-2,60.39,72.81,60.81,12.00,6,1,0,Yes
 Zone Information, SECOND FLOOR CR,0.0,37.42,-26.92,10.39,29.86,-41.25,15.25,1,1,1,24.68,35.04,-46.80,-35.69,13.63,16.87,3.24,195.65,TARP,DOE-2,60.39,72.81,60.81,12.00,6,1,0,Yes
 Zone Information, BASEMENT 3 CR,0.0,37.42,-26.92,10.39,29.86,-41.25,8.77,1,1,1,24.68,35.04,-46.80,-35.69,7.15,10.39,3.24,195.65,TARP,DOE-2,60.39,101.63,89.63,12.00,6,1,0,Yes
 Zone Information, PUMP ROOM,0.0,94.41,41.61,-7.63,28.83,-43.58,1.38,1,1,1,24.82,32.84,-47.03,-40.12,0.00,2.76,2.76,75.58,TARP,DOE-2,27.38,60.26,60.26,0.00,6,0,0,Yes
 Zone Information, AF305,0.0,-5.74,1.86,16.87,2.81,6.36,18.26,1,1,1,-5.07,10.18,-2.01,13.86,16.87,19.65,2.78,359.91,TARP,DOE-2,128.50,97.29,67.29,30.00,5,3,0,Yes
 Zone Information, CB4 CLASSROOM,0.0,67.85,7.83,0.00,61.36,-13.71,1.38,1,1,1,54.96,67.56,-19.40,-8.79,0.00,2.76,2.76,268.07,TARP,DOE-2,97.13,48.22,26.22,22.00,6,2,0,Yes
 Zone Information, CB3 CLASSROOM,0.0,67.85,7.83,0.00,58.99,-22.12,1.38,1,1,1,52.23,65.68,-28.41,-16.50,0.00,2.76,2.76,268.07,TARP,DOE-2,97.13,48.22,26.22,22.00,6,2,0,Yes
 Zone Information, CB2 CLASSROOM,0.0,67.85,7.83,0.00,55.35,-30.07,1.38,1,1,1,48.40,62.39,-36.81,-23.89,0.00,2.76,2.76,268.07,TARP,DOE-2,97.13,48.22,26.22,22.00,6,2,0,Yes
 Zone Information, CB1 CLASSROOM,0.0,67.85,7.83,0.00,50.54,-37.37,1.38,1,1,1,43.56,57.75,-44.40,-30.77,0.00,2.76,2.76,268.07,TARP,DOE-2,97.13,78.87,56.87,22.00,6,2,0,Yes
! <Zone Internal Gains Nominal>,Zone Name, Floor Area {m2},# Occupants,Area per Occupant {m2/person},Occupant per Area {person/m2},Interior Lighting {W/m2},Electric Load {W/m2},Gas Load {W/m2},Other Load {W/m2},Hot Water Eq {W/m2},Steam Equipment {W/m2},Sum Loads per Area {W/m2},Outdoor Controlled Baseboard Heat
 Zone Internal Gains Nominal, AF1B12F,137.62,100.0,1.376,0.727,4.709,3.757,0.000,0.000,0.000,0.000,8.465,No
 Zone Internal Gains Nominal, AF1B05,79.28,0.0,N/A,0.000,0.000,0.000,0.000,0.000,0.000,0.000,0.000,No
 Zone Internal Gains Nominal, AF1B04,67.32,0.0,N/A,0.000,4.278,3.565,0.000,0.000,0.000,0.000,7.843,No
 Zone Internal Gains Nominal, AF1B03,62.83,0.0,N/A,0.000,4.584,3.820,0.000,0.000,0.000,0.000,8.403,No
 Zone Internal Gains Nominal, AF1B01,88.18,0.0,N/A,0.000,0.000,0.000,0.000,0.000,0.000,0.000,0.000,No
 Zone Internal Gains Nominal, AF1B02,84.77,0.0,N/A,0.000,0.000,0.000,0.000,0.000,0.000,0.000,0.000,No
 Zone Internal Gains Nominal, AF1B12B,182.44,100.0,1.824,0.548,3.552,2.834,0.000,0.000,0.000,0.000,6.386,No
 Zone Internal Gains Nominal, AF1B12A,185.03,100.0,1.850,0.540,3.502,2.794,0.000,0.000,0.000,0.000,6.296,No
 Zone Internal Gains Nominal, AF1B10A-AF1B10B_1,50.37,0.0,N/A,0.000,9.292,2.383,0.000,0.000,0.000,0.000,11.674,No
 Zone Internal Gains Nominal, AF1B10A-AF1B10B_2,61.07,0.0,N/A,0.000,7.663,1.965,0.000,0.000,0.000,0.000,9.628,No
 Zone Internal Gains Nominal, AF1B10A-AF1B10B_4,63.60,0.0,N/A,0.000,7.359,1.887,0.000,0.000,0.000,0.000,9.246,No
 Zone Internal Gains Nominal, AF1B10A-AF1B10B_5,62.48,0.0,N/A,0.000,8.067,0.000,0.000,0.000,0.000,0.000,8.067,No
 Zone Internal Gains Nominal, AF1B10A-AF1B10B_3,62.15,0.0,N/A,0.000,7.530,1.931,0.000,0.000,0.000,0.000,9.461,No
 Zone Internal Gains Nominal, CONSERVATION LAB,124.52,10.0,12.452,8.031E-002,0.000,0.000,0.000,0.000,0.000,0.000,0.000,No
 Zone Internal Gains Nominal, AF1B12E,136.54,100.0,1.365,0.732,4.746,3.786,0.000,0.000,0.000,0.000,8.532,No
 Zone Internal Gains Nominal, AF1B12D,133.09,100.0,1.331,0.751,4.869,3.885,0.000,0.000,0.000,0.000,8.754,No
 Zone Internal Gains Nominal, AF101,63.08,100.0,0.631,1.585,3.424,6.658,0.000,0.000,0.000,0.000,10.083,No
 Zone Internal Gains Nominal, AF102,65.62,100.0,0.656,1.524,3.292,6.401,0.000,0.000,0.000,0.000,9.692,No
 Zone Internal Gains Nominal, AF103,49.67,100.0,0.497,2.013,4.349,8.456,0.000,0.000,0.000,0.000,12.804,No
 Zone Internal Gains Nominal, AF104,47.76,100.0,0.478,2.094,4.522,8.793,0.000,0.000,0.000,0.000,13.315,No
 Zone Internal Gains Nominal, ACC OFFICE,124.52,10.0,12.452,8.031E-002,4.048,10.738,0.000,0.000,0.000,0.000,14.785,No
 Zone Internal Gains Nominal, SERVICE BUREAU,105.81,10.0,10.581,9.451E-002,6.805,10.396,0.000,0.000,0.000,0.000,17.201,No
 Zone Internal Gains Nominal, AF111,56.85,100.0,0.569,1.759,1.900,59.806,0.000,0.000,0.000,0.000,61.705,No
 Zone Internal Gains Nominal, AF109B,53.28,100.0,0.533,1.877,5.405,116.356,0.000,0.000,0.000,0.000,121.761,No
 Zone Internal Gains Nominal, AF109A,50.37,100.0,0.504,1.985,4.289,125.481,0.000,0.000,0.000,0.000,129.769,No
 Zone Internal Gains Nominal, CREATIVE HUB,373.42,10.0,37.342,2.678E-002,4.435,0.536,0.000,0.000,0.000,0.000,4.970,No
 Zone Internal Gains Nominal, AF211,87.90,100.0,0.879,1.138,3.583,3.151,0.000,0.000,0.000,0.000,6.735,No
 Zone Internal Gains Nominal, AF210,87.90,100.0,0.879,1.138,3.583,3.151,0.000,0.000,0.000,0.000,6.735,No
 Zone Internal Gains Nominal, AF209,65.25,100.0,0.652,1.533,3.724,4.598,0.000,0.000,0.000,0.000,8.322,No
 Zone Internal Gains Nominal, AF208,67.53,100.0,0.675,1.481,3.598,4.442,0.000,0.000,0.000,0.000,8.040,No
 Zone Internal Gains Nominal, AF207,64.83,100.0,0.648,1.543,3.748,4.628,0.000,0.000,0.000,0.000,8.376,No
 Zone Internal Gains Nominal, FINE ARTS DEPARTMENT,130.86,10.0,13.086,7.642E-002,1.651,2.598,0.000,0.000,0.000,0.000,4.249,No
 Zone Internal Gains Nominal, FACULTY ROOM_FINE ARTS,121.24,10.0,12.124,8.248E-002,5.642,5.914,0.000,0.000,0.000,0.000,11.555,No
 Zone Internal Gains Nominal, AF215,124.52,100.0,1.245,0.803,6.489,1.687,0.000,0.000,0.000,0.000,8.176,No
 Zone Internal Gains Nominal, AF214,121.49,100.0,1.215,0.823,6.651,1.729,0.000,0.000,0.000,0.000,8.379,No
 Zone Internal Gains Nominal, AF213,123.50,100.0,1.235,0.810,5.368,2.429,0.000,0.000,0.000,0.000,7.798,No
 Zone Internal Gains Nominal, AF212,108.80,100.0,1.088,0.919,6.093,2.757,0.000,0.000,0.000,0.000,8.851,No
 Zone Internal Gains Nominal, DEAN OFFICE,42.96,10.0,4.296,0.233,2.933,4.655,0.000,0.000,0.000,0.000,7.588,No
 Zone Internal Gains Nominal, SAFAD CONFERENCE ROOM,43.67,10.0,4.367,0.229,2.886,13.741,0.000,0.000,0.000,0.000,16.626,No
 Zone Internal Gains Nominal, DEAN SECRETARY OFFICE,41.86,10.0,4.186,0.239,4.300,5.183,0.000,0.000,0.000,0.000,9.483,No
 Zone Internal Gains Nominal, ARCHITECTURE DEPARTMENT,79.91,10.0,7.991,0.125,4.167,11.514,0.000,0.000,0.000,0.000,15.681,No
 Zone Internal Gains Nominal, FACULTY ROOM_ARCHITECTURE,202.67,10.0,20.267,4.934E-002,3.641,8.373,0.000,0.000,0.000,0.000,12.014,No
 Zone Internal Gains Nominal, AUXILLIARY OFFICES,128.70,10.0,12.870,7.770E-002,4.825,8.858,0.000,0.000,0.000,0.000,13.683,No
 Zone Internal Gains Nominal, AF304,128.70,100.0,1.287,0.777,6.923,4.196,0.000,0.000,0.000,0.000,11.119,No
 Zone Internal Gains Nominal, AF306,129.20,100.0,1.292,0.774,6.153,4.002,0.000,0.000,0.000,0.000,10.155,No
 Zone Internal Gains Nominal, VPPF,104.96,10.0,10.496,9.527E-002,2.058,7.050,0.000,0.000,0.000,0.000,9.108,No
 Zone Internal Gains Nominal, IPD_CR,42.61,0.0,N/A,0.000,1.690,0.000,0.000,0.000,0.000,0.000,1.690,No
 Zone Internal Gains Nominal, IPD,104.53,10.0,10.453,9.567E-002,11.021,9.758,0.000,0.000,0.000,0.000,20.779,No
 Zone Internal Gains Nominal, AF307,94.78,100.0,0.948,1.055,6.869,2.532,0.000,0.000,0.000,0.000,9.401,No
 Zone Internal Gains Nominal, AF2B06,91.39,100.0,0.914,1.094,4.727,1.313,0.000,0.000,0.000,0.000,6.040,No
 Zone Internal Gains Nominal, AF2B07A,123.30,100.0,1.233,0.811,5.255,1.946,0.000,0.000,0.000,0.000,7.202,No
 Zone Internal Gains Nominal, PAINTING STUDIO_1,168.72,0.0,N/A,0.000,0.000,0.000,0.000,0.000,0.000,0.000,0.000,No
 Zone Internal Gains Nominal, PAINTING STUDIO_2,124.29,0.0,N/A,0.000,0.000,0.000,0.000,0.000,0.000,0.000,0.000,No
 Zone Internal Gains Nominal, PAINTING STUDIO_3,124.52,0.0,N/A,0.000,0.000,0.000,0.000,0.000,0.000,0.000,0.000,No
 Zone Internal Gains Nominal, AF2B07B,146.86,100.0,1.469,0.681,4.412,2.043,0.000,0.000,0.000,0.000,6.455,No
 Zone Internal Gains Nominal, CANTEEN,313.13,0.0,N/A,0.000,0.000,0.000,0.000,0.000,0.000,0.000,0.000,No
 Zone Internal Gains Nominal, GENERATOR AND EE ROOM,125.79,0.0,N/A,0.000,0.859,0.000,0.000,0.000,0.000,0.000,0.859,No
 Zone Internal Gains Nominal, AF308,58.60,100.0,0.586,1.706,11.109,4.095,0.000,0.000,0.000,0.000,15.204,No
 Zone Internal Gains Nominal, AF1B12C,137.86,100.0,1.379,0.725,4.700,3.750,0.000,0.000,0.000,0.000,8.450,No
 Zone Internal Gains Nominal, AF110,52.36,100.0,0.524,1.910,2.063,64.941,0.000,0.000,0.000,0.000,67.004,No
 Zone Internal Gains Nominal, AF2B07C,133.29,100.0,1.333,0.750,4.861,1.463,0.000,0.000,0.000,0.000,6.324,No
 Zone Internal Gains Nominal, AF2B07D,147.08,100.0,1.471,0.680,4.406,1.326,0.000,0.000,0.000,0.000,5.731,No
 Zone Internal Gains Nominal, AF2B07E,127.07,100.0,1.271,0.787,5.099,1.535,0.000,0.000,0.000,0.000,6.634,No
 Zone Internal Gains Nominal, AF2B07F,133.73,100.0,1.337,0.748,4.846,1.458,0.000,0.000,0.000,0.000,6.304,No
 Zone Internal Gains Nominal, GUIDANCE OFFICE,44.30,10.0,4.430,0.226,0.813,1.354,0.000,0.000,0.000,0.000,2.167,No
 Zone Internal Gains Nominal, CLINIC,9.61,10.0,0.961,1.041,3.747,8.015,0.000,0.000,0.000,0.000,11.762,No
 Zone Internal Gains Nominal, GUIDANCE CONFERENCE,18.03,10.0,1.803,0.555,7.987,33.277,0.000,0.000,0.000,0.000,41.264,No
 Zone Internal Gains Nominal, GUIDANCE CONSELOR,32.60,10.0,3.260,0.307,2.484,3.067,0.000,0.000,0.000,0.000,5.552,No
 Zone Internal Gains Nominal, FIRST FLOOR CR,60.39,0.0,N/A,0.000,2.385,0.000,0.000,0.000,0.000,0.000,2.385,No
 Zone Internal Gains Nominal, SECOND FLOOR CR,60.39,0.0,N/A,0.000,2.385,0.000,0.000,0.000,0.000,0.000,2.385,No
 Zone Internal Gains Nominal, BASEMENT 3 CR,60.39,0.0,N/A,0.000,2.385,0.000,0.000,0.000,0.000,0.000,2.385,No
 Zone Internal Gains Nominal, PUMP ROOM,27.38,0.0,N/A,0.000,1.315,76.686,0.000,0.000,0.000,0.000,78.001,No
 Zone Internal Gains Nominal, AF305,128.50,100.0,1.285,0.778,5.066,1.401,0.000,0.000,0.000,0.000,6.467,No
 Zone Internal Gains Nominal, CB4 CLASSROOM,97.13,100.0,0.971,1.030,6.672,0.000,0.000,0.000,0.000,0.000,6.672,No
 Zone Internal Gains Nominal, CB3 CLASSROOM,97.13,100.0,0.971,1.030,6.672,0.000,0.000,0.000,0.000,0.000,6.672,No
 Zone Internal Gains Nominal, CB2 CLASSROOM,97.13,100.0,0.971,1.030,6.672,0.000,0.000,0.000,0.000,0.000,6.672,No
 Zone Internal Gains Nominal, CB1 CLASSROOM,97.13,100.0,0.971,1.030,6.672,0.000,0.000,0.000,0.000,0.000,6.672,No
! <People Internal Gains Nominal>,Name,Schedule Name,Zone Name,Zone Floor Area {m2},# Zone Occupants,Number of People {},People/Floor Area {person/m2},Floor Area per person {m2/person},Fraction Radiant,Fraction Convected,Sensible Fraction Calculation,Activity level,ASHRAE 55 Warnings,Carbon Dioxide Generation Rate,Nominal Minimum Number of People,Nominal Maximum Number of People
 People Internal Gains Nominal, AF1B12F_OCCUPANCY,AF1B12FOCCUPANTS,AF1B12F,137.62,100.0,100.0,0.727,1.376,0.473,0.527,0.610,ASSUMPTIONACTIVITYSCHEDULE,No,3.8200E-008,0,28
 People Internal Gains Nominal, AF1B12B_OCCUPANCY,AF1B12BOCCUPANTS,AF1B12B,182.44,100.0,100.0,0.548,1.824,0.473,0.527,0.610,ASSUMPTIONACTIVITYSCHEDULE,No,3.8200E-008,0,51
 People Internal Gains Nominal, AF1B12A_OCCUPANCY,AF1B12AOCCUPANTS,AF1B12A,185.03,100.0,100.0,0.540,1.850,0.473,0.527,0.610,ASSUMPTIONACTIVITYSCHEDULE,No,3.8200E-008,0,45
 People Internal Gains Nominal, AF1B12E_OCCUPANCY,AF1B12EOCCUPANTS,AF1B12E,136.54,100.0,100.0,0.732,1.365,0.473,0.527,0.610,ASSUMPTIONACTIVITYSCHEDULE,No,3.8200E-008,0,27
 People Internal Gains Nominal, AF1B12D_OCCUPANCY,AF1B12DOCCUPANTS,AF1B12D,133.09,100.0,100.0,0.751,1.331,0.473,0.527,0.610,ASSUMPTIONACTIVITYSCHEDULE,No,3.8200E-008,0,34
 People Internal Gains Nominal, AF101_OCCUPANCY,AF101OCCUPANTS,AF101,63.08,100.0,100.0,1.585,0.631,0.473,0.527,0.610,ASSUMPTIONACTIVITYSCHEDULE,No,3.8200E-008,0,46
 People Internal Gains Nominal, AF102_OCCUPANCY,AF102OCCUPANTS,AF102,65.62,100.0,100.0,1.524,0.656,0.473,0.527,0.610,ASSUMPTIONACTIVITYSCHEDULE,No,3.8200E-008,0,46
 People Internal Gains Nominal, AF103_OCCUPANCY,AF103OCCUPANTS,AF103,49.67,100.0,100.0,2.013,0.497,0.473,0.527,0.610,ASSUMPTIONACTIVITYSCHEDULE,No,3.8200E-008,0,45
 People Internal Gains Nominal, AF104_OCCUPANCY,AF104OCCUPANTS,AF104,47.76,100.0,100.0,2.094,0.478,0.473,0.527,0.610,ASSUMPTIONACTIVITYSCHEDULE,No,3.8200E-008,0,45
 People Internal Gains Nominal, AF111_OCCUPANCY,AF111OCCUPANTS,AF111,56.85,100.0,100.0,1.759,0.569,0.473,0.527,0.610,ACTIVITYSCHEDULESCOMPLAB,No,3.8200E-008,0,43
 People Internal Gains Nominal, AF109B_OCCUPANCY,AF109BOCCUPANTS,AF109B,53.28,100.0,100.0,1.877,0.533,0.473,0.527,0.610,ACTIVITYSCHEDULESCOMPLAB,No,3.8200E-008,0,30
 People Internal Gains Nominal, AF109A_OCCUPANCY,AF109AOCCUPANTS,AF109A,50.37,100.0,100.0,1.985,0.504,0.473,0.527,0.610,ACTIVITYSCHEDULESCOMPLAB,No,3.8200E-008,0,18
 People Internal Gains Nominal, AF211_OCCUPANCY,AF211OCCUPANTS,AF211,87.90,100.0,100.0,1.138,0.879,0.473,0.527,0.610,ASSUMPTIONACTIVITYSCHEDULE,No,3.8200E-008,0,47
 People Internal Gains Nominal, AF210_OCCUPANCY,AF210OCCUPANTS,AF210,87.90,100.0,100.0,1.138,0.879,0.473,0.527,0.610,ASSUMPTIONACTIVITYSCHEDULE,No,3.8200E-008,0,38
 People Internal Gains Nominal, AF209_OCCUPANCY,AF209OCCUPANTS,AF209,65.25,100.0,100.0,1.533,0.652,0.473,0.527,0.610,ASSUMPTIONACTIVITYSCHEDULE,No,3.8200E-008,0,46
 People Internal Gains Nominal, AF208_OCCUPANCY,AF208OCCUPANTS,AF208,67.53,100.0,100.0,1.481,0.675,0.473,0.527,0.610,ASSUMPTIONACTIVITYSCHEDULE,No,3.8200E-008,0,45
 People Internal Gains Nominal, AF207_OCCUPANCY,AF207OCCUPANTS,AF207,64.83,100.0,100.0,1.543,0.648,0.473,0.527,0.610,ASSUMPTIONACTIVITYSCHEDULE,No,3.8200E-008,0,33
 People Internal Gains Nominal, AF215_OCCUPANCY,AF215OCCUPANTS,AF215,124.52,100.0,100.0,0.803,1.245,0.473,0.527,0.610,ASSUMPTIONACTIVITYSCHEDULE,No,3.8200E-008,0,2
 People Internal Gains Nominal, AF214_OCCUPANCY,AF214OCCUPANTS,AF214,121.49,100.0,100.0,0.823,1.215,0.473,0.527,0.610,ASSUMPTIONACTIVITYSCHEDULE,No,3.8200E-008,0,33
 People Internal Gains Nominal, AF213_OCCUPANCY,AF213OCCUPANTS,AF213,123.50,100.0,100.0,0.810,1.235,0.473,0.527,0.610,ASSUMPTIONACTIVITYSCHEDULE,No,3.8200E-008,0,5
 People Internal Gains Nominal, AF212_OCCUPANCY,AF212OCCUPANTS,AF212,108.80,100.0,100.0,0.919,1.088,0.473,0.527,0.610,ASSUMPTIONACTIVITYSCHEDULE,No,3.8200E-008,0,40
 People Internal Gains Nominal, AF304_OCCUPANCY,AF304OCCUPANTS,AF304,128.70,100.0,100.0,0.777,1.287,0.473,0.527,0.610,ASSUMPTIONACTIVITYSCHEDULE,No,3.8200E-008,0,36
 People Internal Gains Nominal, AF306_OCCUPANCY,AF306OCCUPANTS,AF306,129.20,100.0,100.0,0.774,1.292,0.473,0.527,0.610,ASSUMPTIONACTIVITYSCHEDULE,No,3.8200E-008,0,39
 People Internal Gains Nominal, AF307_OCCUPANCY,AF307OCCUPANTS,AF307,94.78,100.0,100.0,1.055,0.948,0.473,0.527,0.610,ASSUMPTIONACTIVITYSCHEDULE,No,3.8200E-008,0,36
 People Internal Gains Nominal, AF2B06_OCCUPANCY,AF2B06OCCUPANTS,AF2B06,91.39,100.0,100.0,1.094,0.914,0.473,0.527,0.610,ASSUMPTIONACTIVITYSCHEDULE,No,3.8200E-008,0,41
 People Internal Gains Nominal, AF2B07A_OCCUPANCY,AF2B07AOCCUPANTS,AF2B07A,123.30,100.0,100.0,0.811,1.233,0.473,0.527,0.610,ASSUMPTIONACTIVITYSCHEDULE,No,3.8200E-008,0,44
 People Internal Gains Nominal, AF2B07B_OCCUPANCY,AF2B07BOCCUPANTS,AF2B07B,146.86,100.0,100.0,0.681,1.469,0.473,0.527,0.610,ASSUMPTIONACTIVITYSCHEDULE,No,3.8200E-008,0,45
 People Internal Gains Nominal, AF308_OCCUPANCY,AF308OCCUPANTS,AF308,58.60,100.0,100.0,1.706,0.586,0.473,0.527,0.610,ASSUMPTIONACTIVITYSCHEDULE,No,3.8200E-008,0,35
 People Internal Gains Nominal, AF1B12C_OCCUPANCY,AF1B12COCCUPANTS,AF1B12C,137.86,100.0,100.0,0.725,1.379,0.473,0.527,0.610,ASSUMPTIONACTIVITYSCHEDULE,No,3.8200E-008,0,50
 People Internal Gains Nominal, AF110_OCCUPANCY,AF110OCCUPANTS,AF110,52.36,100.0,100.0,1.910,0.524,0.473,0.527,0.610,ACTIVITYSCHEDULESCOMPLAB,No,3.8200E-008,0,39
 People Internal Gains Nominal, AF2B07C_OCCUPANCY,AF2B07COCCUPANTS,AF2B07C,133.29,100.0,100.0,0.750,1.333,0.473,0.527,0.610,ASSUMPTIONACTIVITYSCHEDULE,No,3.8200E-008,0,45
 People Internal Gains Nominal, AF2B07D_OCCUPANCY,AF2B07DOCCUPANTS,AF2B07D,147.08,100.0,100.0,0.680,1.471,0.473,0.527,0.610,ASSUMPTIONACTIVITYSCHEDULE,No,3.8200E-008,0,37
 People Internal Gains Nominal, AF2B07E_OCCUPANCY,AF2B07EOCCUPANTS,AF2B07E,127.07,100.0,100.0,0.787,1.271,0.473,0.527,0.610,ASSUMPTIONACTIVITYSCHEDULE,No,3.8200E-008,0,34
 People Internal Gains Nominal, AF2B07F_OCCUPANCY,AF2B07FOCCUPANTS,AF2B07F,133.73,100.0,100.0,0.748,1.337,0.473,0.527,0.610,ASSUMPTIONACTIVITYSCHEDULE,No,3.8200E-008,0,33
 People Internal Gains Nominal, AF305_OCCUPANCY,AF305OCCUPANTS,AF305,128.50,100.0,100.0,0.778,1.285,0.473,0.527,0.610,ASSUMPTIONACTIVITYSCHEDULE,No,3.8200E-008,0,45
 People Internal Gains Nominal, AFCB4_OCCUPANCY,AFCB4OCCUPANTS,CB4 CLASSROOM,97.13,100.0,100.0,1.030,0.971,0.473,0.527,0.610,ASSUMPTIONACTIVITYSCHEDULE,No,3.8200E-008,0,40
 People Internal Gains Nominal, AFCB3_OCCUPANCY,AFCB3OCCUPANTS,CB3 CLASSROOM,97.13,100.0,100.0,1.030,0.971,0.473,0.527,0.610,ASSUMPTIONACTIVITYSCHEDULE,No,3.8200E-008,0,46
 People Internal Gains Nominal, AFCB2_OCCUPANCY,AF3B02OCCUPANTS,CB2 CLASSROOM,97.13,100.0,100.0,1.030,0.971,0.473,0.527,0.610,ASSUMPTIONACTIVITYSCHEDULE,No,3.8200E-008,0,46
 People Internal Gains Nominal, AFCB1_OCCUPANCY,AF3B01OCCUPANTS,CB1 CLASSROOM,97.13,100.0,100.0,1.030,0.971,0.473,0.527,0.610,ASSUMPTIONACTIVITYSCHEDULE,No,3.8200E-008,0,45
 People Internal Gains Nominal, CONSERVATION LAB OFFICESOCCUPANCYSCHEDULE,SAFADOFFICES_SCHEDULE,CONSERVATION LAB,124.52,10.0,10.0,8.031E-002,12.452,0.473,0.527,0.610,ACTIVITYSCHEDULESOFFICES,No,3.8200E-008,0,10
 People Internal Gains Nominal, ACC OFFICE OFFICESOCCUPANCYSCHEDULE,SAFADOFFICES_SCHEDULE,ACC OFFICE,124.52,10.0,10.0,8.031E-002,12.452,0.473,0.527,0.610,ACTIVITYSCHEDULESOFFICES,No,3.8200E-008,0,10
 People Internal Gains Nominal, SERVICE BUREAU OFFICESOCCUPANCYSCHEDULE,SAFADOFFICES_SCHEDULE,SERVICE BUREAU,105.81,10.0,10.0,9.451E-002,10.581,0.473,0.527,0.610,ACTIVITYSCHEDULESOFFICES,No,3.8200E-008,0,10
 People Internal Gains Nominal, CREATIVE HUB OFFICESOCCUPANCYSCHEDULE,SAFADOFFICES_SCHEDULE,CREATIVE HUB,373.42,10.0,10.0,2.678E-002,37.342,0.473,0.527,0.610,ACTIVITYSCHEDULESOFFICES,No,3.8200E-008,0,10
 People Internal Gains Nominal, FINE ARTS DEPARTMENT OFFICESOCCUPANCYSCHEDULE,SAFADOFFICES_SCHEDULE,FINE ARTS DEPARTMENT,130.86,10.0,10.0,7.642E-002,13.086,0.473,0.527,0.610,ACTIVITYSCHEDULESOFFICES,No,3.8200E-008,0,10
 People Internal Gains Nominal, FACULTY ROOM_FINE ARTS OFFICESOCCUPANCYSCHEDULE,SAFADOFFICES_SCHEDULE,FACULTY ROOM_FINE ARTS,121.24,10.0,10.0,8.248E-002,12.124,0.473,0.527,0.610,ACTIVITYSCHEDULESOFFICES,No,3.8200E-008,0,10
 People Internal Gains Nominal, DEAN OFFICE OFFICESOCCUPANCYSCHEDULE,SAFADOFFICES_SCHEDULE,DEAN OFFICE,42.96,10.0,10.0,0.233,4.296,0.473,0.527,0.610,ACTIVITYSCHEDULESOFFICES,No,3.8200E-008,0,10
 People Internal Gains Nominal, SAFAD CONFERENCE ROOM OFFICESOCCUPANCYSCHEDULE,SAFADOFFICES_SCHEDULE,SAFAD CONFERENCE ROOM,43.67,10.0,10.0,0.229,4.367,0.473,0.527,0.610,ACTIVITYSCHEDULESOFFICES,No,3.8200E-008,0,10
 People Internal Gains Nominal, DEAN SECRETARY OFFICE OFFICESOCCUPANCYSCHEDULE,SAFADOFFICES_SCHEDULE,DEAN SECRETARY OFFICE,41.86,10.0,10.0,0.239,4.186,0.473,0.527,0.610,ACTIVITYSCHEDULESOFFICES,No,3.8200E-008,0,10
 People Internal Gains Nominal, ARCHITECTURE DEPARTMENT OFFICESOCCUPANCYSCHEDULE,SAFADOFFICES_SCHEDULE,ARCHITECTURE DEPARTMENT,79.91,10.0,10.0,0.125,7.991,0.473,0.527,0.610,ACTIVITYSCHEDULESOFFICES,No,3.8200E-008,0,10
 People Internal Gains Nominal, FACULTY ROOM_ARCHITECTURE OFFICESOCCUPANCYSCHEDULE,SAFADOFFICES_SCHEDULE,FACULTY ROOM_ARCHITECTURE,202.67,10.0,10.0,4.934E-002,20.267,0.473,0.527,0.610,ACTIVITYSCHEDULESOFFICES,No,3.8200E-008,0,10
 People Internal Gains Nominal, AUXILLIARY OFFICES OFFICESOCCUPANCYSCHEDULE,SAFADOFFICES_SCHEDULE,AUXILLIARY OFFICES,128.70,10.0,10.0,7.770E-002,12.870,0.473,0.527,0.610,ACTIVITYSCHEDULESOFFICES,No,3.8200E-008,0,10
 People Internal Gains Nominal, VPPF OFFICESOCCUPANCYSCHEDULE,SAFADOFFICES_SCHEDULE,VPPF,104.96,10.0,10.0,9.527E-002,10.496,0.473,0.527,0.610,ACTIVITYSCHEDULESOFFICES,No,3.8200E-008,0,10
 People Internal Gains Nominal, IPD OFFICESOCCUPANCYSCHEDULE,SAFADOFFICES_SCHEDULE,IPD,104.53,10.0,10.0,9.567E-002,10.453,0.473,0.527,0.610,ACTIVITYSCHEDULESOFFICES,No,3.8200E-008,0,10
 People Internal Gains Nominal, GUIDANCE OFFICE OFFICESOCCUPANCYSCHEDULE,SAFADOFFICES_SCHEDULE,GUIDANCE OFFICE,44.30,10.0,10.0,0.226,4.430,0.473,0.527,0.610,ACTIVITYSCHEDULESOFFICES,No,3.8200E-008,0,10
 People Internal Gains Nominal, CLINIC OFFICESOCCUPANCYSCHEDULE,SAFADOFFICES_SCHEDULE,CLINIC,9.61,10.0,10.0,1.041,0.961,0.473,0.527,0.610,ACTIVITYSCHEDULESOFFICES,No,3.8200E-008,0,10
 People Internal Gains Nominal, GUIDANCE CONFERENCE OFFICESOCCUPANCYSCHEDULE,SAFADOFFICES_SCHEDULE,GUIDANCE CONFERENCE,18.03,10.0,10.0,0.555,1.803,0.473,0.527,0.610,ACTIVITYSCHEDULESOFFICES,No,3.8200E-008,0,10
 People Internal Gains Nominal, GUIDANCE CONSELOR OFFICESOCCUPANCYSCHEDULE,SAFADOFFICES_SCHEDULE,GUIDANCE CONSELOR,32.60,10.0,10.0,0.307,3.260,0.473,0.527,0.610,ACTIVITYSCHEDULESOFFICES,No,3.8200E-008,0,10
! <Lights Internal Gains Nominal>,Name,Schedule Name,Zone Name,Zone Floor Area {m2},# Zone Occupants,Lighting Level {W},Lights/Floor Area {W/m2},Lights per person {W/person},Fraction Return Air,Fraction Radiant,Fraction Short Wave,Fraction Convected,Fraction Replaceable,End-Use Category,Nominal Minimum Lighting Level {W},Nominal Maximum Lighting Level {W}
 Lights Internal Gains Nominal, AF101_LIGHTING,AF101ACUSCHEDULE,AF101,63.08,100.0,216.000,3.424,2.160,0.000,0.270,0.230,0.500,0.000,General,0.000,216.000
 Lights Internal Gains Nominal, AF102_LIGHTING,AF102ACUSCHEDULE,AF102,65.62,100.0,216.000,3.292,2.160,0.000,0.270,0.230,0.500,0.000,General,0.000,216.000
 Lights Internal Gains Nominal, AF103_LIGHTING,AF103ACUSCHEDULE,AF103,49.67,100.0,216.000,4.349,2.160,0.000,0.270,0.230,0.500,0.000,General,0.000,216.000
 Lights Internal Gains Nominal, AF104_LIGHTING,AF104ACUSCHEDULE,AF104,47.76,100.0,216.000,4.522,2.160,0.000,0.270,0.230,0.500,0.000,General,0.000,216.000
 Lights Internal Gains Nominal, AF109A_LIGHTING,AF109AACUSCHEDULE,AF109A,50.37,100.0,216.000,4.289,2.160,0.000,0.270,0.230,0.500,0.000,General,0.000,216.000
 Lights Internal Gains Nominal, AF109B_LIGHTING,AF109BACUSCHEDULE,AF109B,53.28,100.0,288.000,5.405,2.880,0.000,0.270,0.230,0.500,0.000,General,0.000,288.000
 Lights Internal Gains Nominal, AF110_LIGHTING,AF110ACUSCHEDULE,AF110,52.36,100.0,108.000,2.063,1.080,0.000,0.270,0.230,0.500,0.000,General,0.000,108.000
 Lights Internal Gains Nominal, AF111_LIGHTING,AF111ACUSCHEDULE,AF111,56.85,100.0,108.000,1.900,1.080,0.000,0.270,0.230,0.500,0.000,General,0.000,108.000
 Lights Internal Gains Nominal, AF207_LIGHTING_T5,AF207ACUSCHEDULE,AF207,64.83,100.0,216.000,3.332,2.160,0.000,0.270,0.230,0.500,0.000,General,0.000,216.000
 Lights Internal Gains Nominal, AF207_LIGHTING_CFLPINLIGHT,AF207ACUSCHEDULE,AF207,64.83,100.0,27.000,0.416,0.270,0.000,0.270,0.230,0.500,0.000,General,0.000,27.000
 Lights Internal Gains Nominal, AF208_LIGHTING_T5,AF208ACUSCHEDULE,AF208,67.53,100.0,216.000,3.198,2.160,0.000,0.270,0.230,0.500,0.000,General,0.000,216.000
 Lights Internal Gains Nominal, AF208_LIGHTING_CFLPINLIGHT,AF208ACUSCHEDULE,AF208,67.53,100.0,27.000,0.400,0.270,0.000,0.270,0.230,0.500,0.000,General,0.000,27.000
 Lights Internal Gains Nominal, AF209_LIGHTING_T5,AF209ACUSCHEDULE,AF209,65.25,100.0,216.000,3.311,2.160,0.000,0.270,0.230,0.500,0.000,General,0.000,216.000
 Lights Internal Gains Nominal, AF209_LIGHTING_CFLPINLIGHT,AF209ACUSCHEDULE,AF209,65.25,100.0,27.000,0.414,0.270,0.000,0.270,0.230,0.500,0.000,General,0.000,27.000
 Lights Internal Gains Nominal, AF210_LIGHTING_T5,AF210ACUSCHEDULE,AF210,87.90,100.0,288.000,3.276,2.880,0.000,0.270,0.230,0.500,0.000,General,0.000,288.000
 Lights Internal Gains Nominal, AF210_LIGHTING_CFLPINLIGHT,AF210ACUSCHEDULE,AF210,87.90,100.0,27.000,0.307,0.270,0.000,0.270,0.230,0.500,0.000,General,0.000,27.000
 Lights Internal Gains Nominal, AF211_LIGHTING_T5,AF211ACUSCHEDULE,AF211,87.90,100.0,288.000,3.276,2.880,0.000,0.270,0.230,0.500,0.000,General,0.000,288.000
 Lights Internal Gains Nominal, AF211_LIGHTING_CFLPINLIGHT,AF211ACUSCHEDULE,AF211,87.90,100.0,27.000,0.307,0.270,0.000,0.270,0.230,0.500,0.000,General,0.000,27.000
 Lights Internal Gains Nominal, AF212_LIGHTING_T5,AF212ACUSCHEDULE,AF212,108.80,100.0,648.000,5.956,6.480,0.000,0.270,0.230,0.500,0.000,General,0.000,648.000
 Lights Internal Gains Nominal, AF212_LIGHTING_CFLPINLIGHT,AF212ACUSCHEDULE,AF212,108.80,100.0,15.000,0.138,0.150,0.000,0.270,0.230,0.500,0.000,General,0.000,15.000
 Lights Internal Gains Nominal, AF213_LIGHTING_T5,AF213ACUSCHEDULE,AF213,123.50,100.0,648.000,5.247,6.480,0.000,0.270,0.230,0.500,0.000,General,0.000,648.000
 Lights Internal Gains Nominal, AF213_LIGHTING_CFLPINLIGHT,AF213ACUSCHEDULE,AF213,123.50,100.0,15.000,0.121,0.150,0.000,0.270,0.230,0.500,0.000,General,0.000,15.000
 Lights Internal Gains Nominal, AF214_LIGHTING_T5,AF214ACUSCHEDULE,AF214,121.49,100.0,790.000,6.503,7.900,0.000,0.270,0.230,0.500,0.000,General,0.000,790.000
 Lights Internal Gains Nominal, AF214_LIGHTING_CFLPINLIGHT,AF214ACUSCHEDULE,AF214,121.49,100.0,18.000,0.148,0.180,0.000,0.270,0.230,0.500,0.000,General,0.000,18.000
 Lights Internal Gains Nominal, AF215_LIGHTING_T5,AF215ACUSCHEDULE,AF215,124.52,100.0,790.000,6.345,7.900,0.000,0.270,0.230,0.500,0.000,General,0.000,790.000
 Lights Internal Gains Nominal, AF215_LIGHTING_CFLPINLIGHT,AF215ACUSCHEDULE,AF215,124.52,100.0,18.000,0.145,0.180,0.000,0.270,0.230,0.500,0.000,General,0.000,18.000
 Lights Internal Gains Nominal, AF304_LIGHTING_T5,AF304ACUSCHEDULE,AF304,128.70,100.0,864.000,6.713,8.640,0.000,0.270,0.230,0.500,0.000,General,0.000,864.000
 Lights Internal Gains Nominal, AF304_LIGHTING_CFLPINLIGHT,AF304ACUSCHEDULE,AF304,128.70,100.0,27.000,0.210,0.270,0.000,0.270,0.230,0.500,0.000,General,0.000,27.000
 Lights Internal Gains Nominal, AF305_LIGHTING_T5,AF305ACUSCHEDULE,AF305,128.50,100.0,624.000,4.856,6.240,0.000,0.270,0.230,0.500,0.000,General,0.000,624.000
 Lights Internal Gains Nominal, AF305_LIGHTING_CFLPINLIGHT,AF305ACUSCHEDULE,AF305,128.50,100.0,27.000,0.210,0.270,0.000,0.270,0.230,0.500,0.000,General,0.000,27.000
 Lights Internal Gains Nominal, AF306_LIGHTING_T5,AF306ACUSCHEDULE,AF306,129.20,100.0,768.000,5.944,7.680,0.000,0.270,0.230,0.500,0.000,General,0.000,768.000
 Lights Internal Gains Nominal, AF306_LIGHTING_CFLPINLIGHT,AF306ACUSCHEDULE,AF306,129.20,100.0,27.000,0.209,0.270,0.000,0.270,0.230,0.500,0.000,General,0.000,27.000
 Lights Internal Gains Nominal, AF307_LIGHTING_T5,AF307ACUSCHEDULE,AF307,94.78,100.0,624.000,6.584,6.240,0.000,0.270,0.230,0.500,0.000,General,0.000,624.000
 Lights Internal Gains Nominal, AF307_LIGHTING_CFLPINLIGHT,AF307ACUSCHEDULE,AF307,94.78,100.0,27.000,0.285,0.270,0.000,0.270,0.230,0.500,0.000,General,0.000,27.000
 Lights Internal Gains Nominal, AF308_LIGHTING_T5,AF308ACUSCHEDULE,AF308,58.60,100.0,624.000,10.648,6.240,0.000,0.270,0.230,0.500,0.000,General,0.000,624.000
 Lights Internal Gains Nominal, AF308_LIGHTING_CFLPINLIGHT,AF308ACUSCHEDULE,AF308,58.60,100.0,27.000,0.461,0.270,0.000,0.270,0.230,0.500,0.000,General,0.000,27.000
 Lights Internal Gains Nominal, AF1B12A_LIGHTING_T5,AF1B12AACUSCHEDULE,AF1B12A,185.03,100.0,648.000,3.502,6.480,0.000,0.270,0.230,0.500,0.000,General,0.000,648.000
 Lights Internal Gains Nominal, AF1B12B_LIGHTING_T5,AF1B12BACUSCHEDULE,AF1B12B,182.44,100.0,648.000,3.552,6.480,0.000,0.270,0.230,0.500,0.000,General,0.000,648.000
 Lights Internal Gains Nominal, AF1B12C_LIGHTING_T5,AF1B12CACUSCHEDULE,AF1B12C,137.86,100.0,648.000,4.700,6.480,0.000,0.270,0.230,0.500,0.000,General,0.000,648.000
 Lights Internal Gains Nominal, AF1B12D_LIGHTING_T5,AF1B12DACUSCHEDULE,AF1B12D,133.09,100.0,648.000,4.869,6.480,0.000,0.270,0.230,0.500,0.000,General,0.000,648.000
 Lights Internal Gains Nominal, AF1B12E_LIGHTING_T5,AF1B12EACUSCHEDULE,AF1B12E,136.54,100.0,648.000,4.746,6.480,0.000,0.270,0.230,0.500,0.000,General,0.000,648.000
 Lights Internal Gains Nominal, AF1B12F_LIGHTING_T5,AF1B12FACUSCHEDULE,AF1B12F,137.62,100.0,648.000,4.709,6.480,0.000,0.270,0.230,0.500,0.000,General,0.000,648.000
 Lights Internal Gains Nominal, AF1B10A-AF1B10B_1_LIGHTING_T5,AF1B10AACUSCHEDULE,AF1B10A-AF1B10B_1,50.37,0.0,468.000,9.292,N/A,0.000,0.270,0.230,0.500,0.000,General,0.000,468.000
 Lights Internal Gains Nominal, AF1B10A-AF1B10B_2_LIGHTING_T5,AF1B10AACUSCHEDULE,AF1B10A-AF1B10B_2,61.07,0.0,468.000,7.663,N/A,0.000,0.270,0.230,0.500,0.000,General,0.000,468.000
 Lights Internal Gains Nominal, AF1B10A-AF1B10B_3_LIGHTING_T5,AF1B10AACUSCHEDULE,AF1B10A-AF1B10B_3,62.15,0.0,468.000,7.530,N/A,0.000,0.270,0.230,0.500,0.000,General,0.000,468.000
 Lights Internal Gains Nominal, AF1B10A-AF1B10B_4_LIGHTING_T5,AF1B10BACUSCHEDULE,AF1B10A-AF1B10B_4,63.60,0.0,468.000,7.359,N/A,0.000,0.270,0.230,0.500,0.000,General,0.000,468.000
 Lights Internal Gains Nominal, AF1B10A-AF1B10B_5_LIGHTING_T5,AF1B10BACUSCHEDULE,AF1B10A-AF1B10B_5,62.48,0.0,504.000,8.067,N/A,0.000,0.270,0.230,0.500,0.000,General,0.000,504.000
 Lights Internal Gains Nominal, AF1B03_LIGHTING_T5,AF1B03ACUSCHEDULE,AF1B03,62.83,0.0,288.000,4.584,N/A,0.000,0.270,0.230,0.500,0.000,General,0.000,288.000
 Lights Internal Gains Nominal, AF1B04_LIGHTING_T5,AF1B04ACUSCHEDULE,AF1B04,67.32,0.0,288.000,4.278,N/A,0.000,0.270,0.230,0.500,0.000,General,0.000,288.000
 Lights Internal Gains Nominal, AF2B06_LIGHTING_T5,AF2B06ACUSCHEDULE,AF2B06,91.39,100.0,432.000,4.727,4.320,0.000,0.270,0.230,0.500,0.000,General,0.000,432.000
 Lights Internal Gains Nominal, AF2B07A_LIGHTING_T5,AF2B07AACUSCHEDULE,AF2B07A,123.30,100.0,648.000,5.255,6.480,0.000,0.270,0.230,0.500,0.000,General,0.000,648.000
 Lights Internal Gains Nominal, AF2B07B_LIGHTING_T5,AF2B07BACUSCHEDULE,AF2B07B,146.86,100.0,648.000,4.412,6.480,0.000,0.270,0.230,0.500,0.000,General,0.000,648.000
 Lights Internal Gains Nominal, AFCB1_LIGHTING_T5,AFCB1ACUSCHEDULE,CB1 CLASSROOM,97.13,100.0,648.000,6.672,6.480,0.000,0.270,0.230,0.500,0.000,General,0.000,648.000
 Lights Internal Gains Nominal, AFCB2_LIGHTING_T5,AFCB2ACUSCHEDULE,CB2 CLASSROOM,97.13,100.0,648.000,6.672,6.480,0.000,0.270,0.230,0.500,0.000,General,0.000,648.000
 Lights Internal Gains Nominal, AFCB3_LIGHTING_T5,AFCB3ACUSCHEDULE,CB3 CLASSROOM,97.13,100.0,648.000,6.672,6.480,0.000,0.270,0.230,0.500,0.000,General,0.000,648.000
 Lights Internal Gains Nominal, AFCB4_LIGHTING_T5,AFCB4ACUSCHEDULE,CB4 CLASSROOM,97.13,100.0,648.000,6.672,6.480,0.000,0.270,0.230,0.500,0.000,General,0.000,648.000
 Lights Internal Gains Nominal, AF2B07C_LIGHTING_T5,AF2B07CACUSCHEDULE,AF2B07C,133.29,100.0,648.000,4.861,6.480,0.000,0.270,0.230,0.500,0.000,General,0.000,648.000
 Lights Internal Gains Nominal, AF2B07D_LIGHTING_T5,AF2B07DACUSCHEDULE,AF2B07D,147.08,100.0,648.000,4.406,6.480,0.000,0.270,0.230,0.500,0.000,General,0.000,648.000
 Lights Internal Gains Nominal, AF2B07E_LIGHTING_T5,AF2B07EACUSCHEDULE,AF2B07E,127.07,100.0,648.000,5.099,6.480,0.000,0.270,0.230,0.500,0.000,General,0.000,648.000
 Lights Internal Gains Nominal, AF2B07F_LIGHTING_T5,AF2B07FACUSCHEDULE,AF2B07F,133.73,100.0,648.000,4.846,6.480,0.000,0.270,0.230,0.500,0.000,General,0.000,648.000
 Lights Internal Gains Nominal, GUIDANCE CONFERENCE_LIGHTING_T5,SAFADOFFICES_SCHEDULE,GUIDANCE CONFERENCE,18.03,10.0,144.000,7.987,14.400,0.000,0.270,0.230,0.500,1.000,General,0.000,144.000
 Lights Internal Gains Nominal, CLINIC_LIGHTING_T5,SAFADOFFICES_SCHEDULE,CLINIC,9.61,10.0,36.000,3.747,3.600,0.000,0.270,0.230,0.500,1.000,General,0.000,36.000
 Lights Internal Gains Nominal, GUIDANCE COUNSELOR_LIGHTING_T5,SAFADOFFICES_SCHEDULE,GUIDANCE CONSELOR,32.60,10.0,36.000,1.104,3.600,0.000,0.270,0.230,0.500,1.000,General,0.000,36.000
 Lights Internal Gains Nominal, GUIDANCE CR_LIGHTING_T5,SAFADOFFICES_SCHEDULE,GUIDANCE CONSELOR,32.60,10.0,36.000,1.104,3.600,0.000,0.270,0.230,0.500,1.000,General,0.000,36.000
 Lights Internal Gains Nominal, GUIDANCE OFFICE_LIGHTING_T5,SAFADOFFICES_SCHEDULE,GUIDANCE OFFICE,44.30,10.0,36.000,0.813,3.600,0.000,0.270,0.230,0.500,1.000,General,0.000,36.000
 Lights Internal Gains Nominal, CREATIVE HUB_LIGHTING_T5,SAFADOFFICES_SCHEDULE,CREATIVE HUB,373.42,10.0,1440.000,3.856,144.000,0.000,0.270,0.230,0.500,1.000,General,0.000,1440.000
 Lights Internal Gains Nominal, CREATIVE HUB OFFICE_LIGHTING_T5,SAFADOFFICES_SCHEDULE,CREATIVE HUB,373.42,10.0,72.000,0.193,7.200,0.000,0.270,0.230,0.500,1.000,General,0.000,72.000
 Lights Internal Gains Nominal, CREATIVE HUB DISCUSSION ROOM_LIGHTING_T5,SAFADOFFICES_SCHEDULE,CREATIVE HUB,373.42,10.0,144.000,0.386,14.400,0.000,0.270,0.230,0.500,1.000,General,0.000,144.000
 Lights Internal Gains Nominal, ACC SERVICE BUREAU_LIGHTING_T5,SAFADOFFICES_SCHEDULE,SERVICE BUREAU,105.81,10.0,720.000,6.805,72.000,0.000,0.270,0.230,0.500,1.000,General,0.000,720.000
 Lights Internal Gains Nominal, ACC_LIGHTING_T5,SAFADOFFICES_SCHEDULE,ACC OFFICE,124.52,10.0,504.000,4.048,50.400,0.000,0.270,0.230,0.500,1.000,General,0.000,504.000
 Lights Internal Gains Nominal, FINE ARTS DEPT_LIGHTING_T5,SAFADOFFICES_SCHEDULE,FINE ARTS DEPARTMENT,130.86,10.0,216.000,1.651,21.600,0.000,0.270,0.230,0.500,1.000,General,0.000,216.000
 Lights Internal Gains Nominal, FINE ARTS FACULTY_LIGHTING_T5,SAFADOFFICES_SCHEDULE,FACULTY ROOM_FINE ARTS,121.24,10.0,684.000,5.642,68.400,0.000,0.270,0.230,0.500,1.000,General,0.000,684.000
 Lights Internal Gains Nominal, ARCHITECTURE FACULTY_LIGHTING_T5,SAFADOFFICES_SCHEDULE,FACULTY ROOM_ARCHITECTURE,202.67,10.0,720.000,3.553,72.000,0.000,0.270,0.230,0.500,1.000,General,0.000,720.000
 Lights Internal Gains Nominal, ARCHITECTURE FACULTY_LIGHTING_CFLPINLIGHT,SAFADOFFICES_SCHEDULE,FACULTY ROOM_ARCHITECTURE,202.67,10.0,18.000,8.881E-002,1.800,0.000,0.270,0.230,0.500,0.000,General,0.000,18.000
 Lights Internal Gains Nominal, GUIDANCE CR_LIGHTING_CFLPINLIGHT,SAFADOFFICES_SCHEDULE,GUIDANCE CONSELOR,32.60,10.0,9.000,0.276,0.900,0.000,0.270,0.230,0.500,0.000,General,0.000,9.000
 Lights Internal Gains Nominal, ARCHITECTURE DEPT_LIGHTING_T5,SAFADOFFICES_SCHEDULE,ARCHITECTURE DEPARTMENT,79.91,10.0,288.000,3.604,28.800,0.000,0.270,0.230,0.500,1.000,General,0.000,288.000
 Lights Internal Gains Nominal, ARCHITECTURE DEPT_LIGHTING_CFLPINLIGHT,SAFADOFFICES_SCHEDULE,ARCHITECTURE DEPARTMENT,79.91,10.0,45.000,0.563,4.500,0.000,0.270,0.230,0.500,0.000,General,0.000,45.000
 Lights Internal Gains Nominal, DEAN SECRETARY_LIGHTING_T5,SAFADOFFICES_SCHEDULE,DEAN SECRETARY OFFICE,41.86,10.0,144.000,3.440,14.400,0.000,0.270,0.230,0.500,1.000,General,0.000,144.000
 Lights Internal Gains Nominal, DEAN SECRETARY_LIGHTING_CFLPINLIGHT,SAFADOFFICES_SCHEDULE,DEAN SECRETARY OFFICE,41.86,10.0,36.000,0.860,3.600,0.000,0.270,0.230,0.500,0.000,General,0.000,36.000
 Lights Internal Gains Nominal, SAFAD CONFERENCE ROOM_LIGHTING_T5,SAFADOFFICES_SCHEDULE,SAFAD CONFERENCE ROOM,43.67,10.0,72.000,1.649,7.200,0.000,0.270,0.230,0.500,1.000,General,0.000,72.000
 Lights Internal Gains Nominal, SAFAD CONFERENCE_LIGHTING_CFLPINLIGHT,SAFADOFFICES_SCHEDULE,SAFAD CONFERENCE ROOM,43.67,10.0,54.000,1.237,5.400,0.000,0.270,0.230,0.500,0.000,General,0.000,54.000
 Lights Internal Gains Nominal, DEAN OFFICE_LIGHTING_T5,SAFADOFFICES_SCHEDULE,DEAN OFFICE,42.96,10.0,72.000,1.676,7.200,0.000,0.270,0.230,0.500,1.000,General,0.000,72.000
 Lights Internal Gains Nominal, DEAN OFFICE_LIGHTING_CFLPINLIGHT,SAFADOFFICES_SCHEDULE,DEAN OFFICE,42.96,10.0,54.000,1.257,5.400,0.000,0.270,0.230,0.500,0.000,General,0.000,54.000
 Lights Internal Gains Nominal, AUXILLIARY OFFICES_LIGHTING_T5,SAFADOFFICES_SCHEDULE,AUXILLIARY OFFICES,128.70,10.0,576.000,4.476,57.600,0.000,0.270,0.230,0.500,1.000,General,0.000,576.000
 Lights Internal Gains Nominal, AUXILLIARY OFFICES_LIGHTING_CFLPINLIGHT,SAFADOFFICES_SCHEDULE,AUXILLIARY OFFICES,128.70,10.0,27.000,0.210,2.700,0.000,0.270,0.230,0.500,0.000,General,0.000,27.000
 Lights Internal Gains Nominal, IPD_LIGHTING_T5,SAFADOFFICES_SCHEDULE,IPD,104.53,10.0,792.000,7.577,79.200,0.000,0.270,0.230,0.500,1.000,General,0.000,792.000
 Lights Internal Gains Nominal, IPD_LIGHTING_120W,SAFADOFFICES_SCHEDULE,IPD,104.53,10.0,360.000,3.444,36.000,0.000,0.270,0.230,0.500,1.000,General,0.000,360.000
 Lights Internal Gains Nominal, VPPF_LIGHTING_T5,SAFADOFFICES_SCHEDULE,VPPF,104.96,10.0,216.000,2.058,21.600,0.000,0.270,0.230,0.500,1.000,General,0.000,216.000
 Lights Internal Gains Nominal, PUMP ROOM_LIGHTING_T5,SAFADOFFICES_SCHEDULE,PUMP ROOM,27.38,0.0,36.000,1.315,N/A,0.000,0.270,0.230,0.500,1.000,General,0.000,36.000
 Lights Internal Gains Nominal, ELECTRICAL ROOM/BARRACKS_LIGHTING_T5,SAFADOFFICES_SCHEDULE,GENERATOR AND EE ROOM,125.79,0.0,108.000,0.859,N/A,0.000,0.270,0.230,0.500,1.000,General,0.000,108.000
 Lights Internal Gains Nominal, IPD CR_LIGHTING_T5,SAFADOFFICES_SCHEDULE,IPD_CR,42.61,0.0,72.000,1.690,N/A,0.000,0.270,0.230,0.500,1.000,General,0.000,72.000
 Lights Internal Gains Nominal, SECOND FLOOR CR_LIGHTING_T5,SAFADOFFICES_SCHEDULE,SECOND FLOOR CR,60.39,0.0,144.000,2.385,N/A,0.000,0.270,0.230,0.500,1.000,General,0.000,144.000
 Lights Internal Gains Nominal, SECOND FLOOR CR_LIGHTING_CFLPINLIGHT,SAFADOFFICES_SCHEDULE,AUXILLIARY OFFICES,128.70,10.0,18.000,0.140,1.800,0.000,0.270,0.230,0.500,0.000,General,0.000,18.000
 Lights Internal Gains Nominal, FIRST FLOOR CR_LIGHTING_T5,SAFADOFFICES_SCHEDULE,FIRST FLOOR CR,60.39,0.0,144.000,2.385,N/A,0.000,0.270,0.230,0.500,1.000,General,0.000,144.000
 Lights Internal Gains Nominal, BASEMENT 3 CR_LIGHTING_T5,SAFADOFFICES_SCHEDULE,BASEMENT 3 CR,60.39,0.0,144.000,2.385,N/A,0.000,0.270,0.230,0.500,1.000,General,0.000,144.000
! <ElectricEquipment Internal Gains Nominal>,Name,Schedule Name,Zone Name,Zone Floor Area {m2},# Zone Occupants,Equipment Level {W},Equipment/Floor Area {W/m2},Equipment per person {W/person},Fraction Latent,Fraction Radiant,Fraction Lost,Fraction Convected,End-Use SubCategory,Nominal Minimum Equipment Level {W},Nominal Maximum Equipment Level {W}
 ElectricEquipment Internal Gains Nominal, AF101_PLUGGEDLOADS_FAN,AF101LIGHTEQUIPMENTSCHEDULE,AF101,63.08,100.0,120.000,1.902,1.200,0.000,0.534,0.000,0.466,General,0.000,120.000
 ElectricEquipment Internal Gains Nominal, AF101_PLUGGEDLOADS_PROJECTORPANASONIC,AF101ACUSCHEDULE,AF101,63.08,100.0,300.000,4.756,3.000,0.000,0.534,0.000,0.466,General,0.000,300.000
 ElectricEquipment Internal Gains Nominal, AF102_PLUGGEDLOADS_FAN,AF102LIGHTEQUIPMENTSCHEDULE,AF102,65.62,100.0,120.000,1.829,1.200,0.000,0.534,0.000,0.466,General,0.000,120.000
 ElectricEquipment Internal Gains Nominal, AF102_PLUGGEDLOADS_PROJECTORPANASONIC,AF102ACUSCHEDULE,AF102,65.62,100.0,300.000,4.572,3.000,0.000,0.534,0.000,0.466,General,0.000,300.000
 ElectricEquipment Internal Gains Nominal, AF103_PLUGGEDLOADS_FAN,AF103LIGHTEQUIPMENTSCHEDULE,AF103,49.67,100.0,120.000,2.416,1.200,0.000,0.534,0.000,0.466,General,0.000,120.000
 ElectricEquipment Internal Gains Nominal, AF103_PLUGGEDLOADS_PROJECTORPANASONIC,AF103ACUSCHEDULE,AF103,49.67,100.0,300.000,6.040,3.000,0.000,0.534,0.000,0.466,General,0.000,300.000
 ElectricEquipment Internal Gains Nominal, AF104_PLUGGEDLOADS_FAN,AF104LIGHTEQUIPMENTSCHEDULE,AF104,47.76,100.0,120.000,2.512,1.200,0.000,0.534,0.000,0.466,General,0.000,120.000
 ElectricEquipment Internal Gains Nominal, AF104_PLUGGEDLOADS_PROJECTORPANASONIC,AF104ACUSCHEDULE,AF104,47.76,100.0,300.000,6.281,3.000,0.000,0.534,0.000,0.466,General,0.000,300.000
 ElectricEquipment Internal Gains Nominal, AF109A_PLUGGEDLOADS_FAN,AF109ALIGHTEQUIPMENTSCHEDULE,AF109A,50.37,100.0,120.000,2.383,1.200,0.000,0.534,0.000,0.466,General,0.000,120.000
 ElectricEquipment Internal Gains Nominal, AF109A_PLUGGEDLOADS_COMPUTER,AF109AACUSCHEDULE,AF109A,50.37,100.0,6200.000,123.098,62.000,0.000,0.534,0.000,0.466,General,0.000,6200.000
 ElectricEquipment Internal Gains Nominal, AF109B_PLUGGEDLOADS_COMPUTER,AF109BACUSCHEDULE,AF109B,53.28,100.0,6200.000,116.356,62.000,0.000,0.534,0.000,0.466,General,0.000,6200.000
 ElectricEquipment Internal Gains Nominal, AF110_PLUGGEDLOADS_COMPUTER,AF110ACUSCHEDULE,AF110,52.36,100.0,3100.000,59.211,31.000,0.000,0.534,0.000,0.466,General,0.000,3100.000
 ElectricEquipment Internal Gains Nominal, AF110_PLUGGEDLOADS_PROJECTORPANASONIC,AF110ACUSCHEDULE,AF110,52.36,100.0,300.000,5.730,3.000,0.000,0.534,0.000,0.466,General,0.000,300.000
 ElectricEquipment Internal Gains Nominal, AF111_PLUGGEDLOADS_COMPUTER,AF111ACUSCHEDULE,AF111,56.85,100.0,3100.000,54.529,31.000,0.000,0.534,0.000,0.466,General,0.000,3100.000
 ElectricEquipment Internal Gains Nominal, AF111_PLUGGEDLOADS_PROJECTORPANASONIC,AF111ACUSCHEDULE,AF111,56.85,100.0,300.000,5.277,3.000,0.000,0.534,0.000,0.466,General,0.000,300.000
 ElectricEquipment Internal Gains Nominal, AF207_PLUGGEDLOADS_PROJECTORPANASONIC,AF207ACUSCHEDULE,AF207,64.83,100.0,300.000,4.628,3.000,0.000,0.534,0.000,0.466,General,0.000,300.000
 ElectricEquipment Internal Gains Nominal, AF208_PLUGGEDLOADS_PROJECTORPANASONIC,AF208ACUSCHEDULE,AF208,67.53,100.0,300.000,4.442,3.000,0.000,0.534,0.000,0.466,General,0.000,300.000
 ElectricEquipment Internal Gains Nominal, AF209_PLUGGEDLOADS_PROJECTORPANASONIC,AF209ACUSCHEDULE,AF209,65.25,100.0,300.000,4.598,3.000,0.000,0.534,0.000,0.466,General,0.000,300.000
 ElectricEquipment Internal Gains Nominal, AF210_PLUGGEDLOADS_PROJECTOREPSON,AF210ACUSCHEDULE,AF210,87.90,100.0,277.000,3.151,2.770,0.000,0.534,0.000,0.466,General,0.000,277.000
 ElectricEquipment Internal Gains Nominal, AF211_PLUGGEDLOADS_PROJECTOREPSON,AF211ACUSCHEDULE,AF211,87.90,100.0,277.000,3.151,2.770,0.000,0.534,0.000,0.466,General,0.000,277.000
 ElectricEquipment Internal Gains Nominal, AF212_PLUGGEDLOADS_PROJECTORPANASONIC,AF212ACUSCHEDULE,AF212,108.80,100.0,300.000,2.757,3.000,0.000,0.534,0.000,0.466,General,0.000,300.000
 ElectricEquipment Internal Gains Nominal, AF213_PLUGGEDLOADS_PROJECTORPANASONIC,AF213ACUSCHEDULE,AF213,123.50,100.0,300.000,2.429,3.000,0.000,0.534,0.000,0.466,General,0.000,300.000
 ElectricEquipment Internal Gains Nominal, AF214_PLUGGEDLOADS_PROJECTORSANYO,AF214ACUSCHEDULE,AF214,121.49,100.0,210.000,1.729,2.100,0.000,0.534,0.000,0.466,General,0.000,210.000
 ElectricEquipment Internal Gains Nominal, AF215_PLUGGEDLOADS_PROJECTORSANYO,AF215ACUSCHEDULE,AF215,124.52,100.0,210.000,1.687,2.100,0.000,0.534,0.000,0.466,General,0.000,210.000
 ElectricEquipment Internal Gains Nominal, AF304_PLUGGEDLOADS_PROJECTORPANASONIC,AF304ACUSCHEDULE,AF304,128.70,100.0,300.000,2.331,3.000,0.000,0.534,0.000,0.466,General,0.000,300.000
 ElectricEquipment Internal Gains Nominal, AF304_PLUGGEDLOADS_FAN,AF304LIGHTEQUIPMENTSCHEDULE,AF304,128.70,100.0,240.000,1.865,2.400,0.000,0.534,0.000,0.466,General,0.000,240.000
 ElectricEquipment Internal Gains Nominal, AF305_PLUGGEDLOADS_FAN,AF305LIGHTEQUIPMENTSCHEDULE,AF305,128.50,100.0,180.000,1.401,1.800,0.000,0.534,0.000,0.466,General,0.000,180.000
 ElectricEquipment Internal Gains Nominal, AF306_PLUGGEDLOADS_PROJECTOREPSON,AF306ACUSCHEDULE,AF306,129.20,100.0,277.000,2.144,2.770,0.000,0.534,0.000,0.466,General,0.000,277.000
 ElectricEquipment Internal Gains Nominal, AF306_PLUGGEDLOADS_FAN,AF306LIGHTEQUIPMENTSCHEDULE,AF306,129.20,100.0,240.000,1.858,2.400,0.000,0.534,0.000,0.466,General,0.000,240.000
 ElectricEquipment Internal Gains Nominal, AF307_PLUGGEDLOADS_FAN,AF307LIGHTEQUIPMENTSCHEDULE,AF307,94.78,100.0,240.000,2.532,2.400,0.000,0.534,0.000,0.466,General,0.000,240.000
 ElectricEquipment Internal Gains Nominal, AF308_PLUGGEDLOADS_FAN,AF308LIGHTEQUIPMENTSCHEDULE,AF308,58.60,100.0,240.000,4.095,2.400,0.000,0.534,0.000,0.466,General,0.000,240.000
 ElectricEquipment Internal Gains Nominal, AF1B10A-AF1B10B_1_PLUGGEDLOADS_FAN,AF1B10ALIGHTEQUIPMENTSCHEDULE,AF1B10A-AF1B10B_1,50.37,0.0,120.000,2.383,N/A,0.000,0.534,0.000,0.466,General,0.000,120.000
 ElectricEquipment Internal Gains Nominal, AF1B10A-AF1B10B_2_PLUGGEDLOADS_FAN,AF1B10ALIGHTEQUIPMENTSCHEDULE,AF1B10A-AF1B10B_2,61.07,0.0,120.000,1.965,N/A,0.000,0.534,0.000,0.466,General,0.000,120.000
 ElectricEquipment Internal Gains Nominal, AF1B10A-AF1B10B_3_PLUGGEDLOADS_FAN,AF1B10BLIGHTEQUIPMENTSCHEDULE,AF1B10A-AF1B10B_3,62.15,0.0,120.000,1.931,N/A,0.000,0.534,0.000,0.466,General,0.000,120.000
 ElectricEquipment Internal Gains Nominal, AF1B10A-AF1B10B_4_PLUGGEDLOADS_FAN,AF1B10BLIGHTEQUIPMENTSCHEDULE,AF1B10A-AF1B10B_4,63.60,0.0,120.000,1.887,N/A,0.000,0.534,0.000,0.466,General,0.000,120.000
 ElectricEquipment Internal Gains Nominal, AF1B12A_PLUGGEDLOADS_PROJECTOREPSON,AF1B12AACUSCHEDULE,AF1B12A,185.03,100.0,277.000,1.497,2.770,0.000,0.534,0.000,0.466,General,0.000,277.000
 ElectricEquipment Internal Gains Nominal, AF1B12A_PLUGGEDLOADS_FAN,AF1B12ALIGHTEQUIPMENTSCHEDULE,AF1B12A,185.03,100.0,240.000,1.297,2.400,0.000,0.534,0.000,0.466,General,0.000,240.000
 ElectricEquipment Internal Gains Nominal, AF1B12B_PLUGGEDLOADS_PROJECTOREPSON,AF1B12BACUSCHEDULE,AF1B12B,182.44,100.0,277.000,1.518,2.770,0.000,0.534,0.000,0.466,General,0.000,277.000
 ElectricEquipment Internal Gains Nominal, AF1B12B_PLUGGEDLOADS_FAN,AF1B12BLIGHTEQUIPMENTSCHEDULE,AF1B12B,182.44,100.0,240.000,1.316,2.400,0.000,0.534,0.000,0.466,General,0.000,240.000
 ElectricEquipment Internal Gains Nominal, AF1B12C_PLUGGEDLOADS_PROJECTOREPSON,AF1B12CACUSCHEDULE,AF1B12C,137.86,100.0,277.000,2.009,2.770,0.000,0.534,0.000,0.466,General,0.000,277.000
 ElectricEquipment Internal Gains Nominal, AF1B12C_PLUGGEDLOADS_FAN,AF1B12CLIGHTEQUIPMENTSCHEDULE,AF1B12C,137.86,100.0,240.000,1.741,2.400,0.000,0.534,0.000,0.466,General,0.000,240.000
 ElectricEquipment Internal Gains Nominal, AF1B12D_PLUGGEDLOADS_PROJECTOREPSON,AF1B12DACUSCHEDULE,AF1B12D,133.09,100.0,277.000,2.081,2.770,0.000,0.534,0.000,0.466,General,0.000,277.000
 ElectricEquipment Internal Gains Nominal, AF1B12D_PLUGGEDLOADS_FAN,AF1B12DLIGHTEQUIPMENTSCHEDULE,AF1B12D,133.09,100.0,240.000,1.803,2.400,0.000,0.534,0.000,0.466,General,0.000,240.000
 ElectricEquipment Internal Gains Nominal, AF1B12E_PLUGGEDLOADS_PROJECTOREPSON,AF1B12EACUSCHEDULE,AF1B12E,136.54,100.0,277.000,2.029,2.770,0.000,0.534,0.000,0.466,General,0.000,277.000
 ElectricEquipment Internal Gains Nominal, AF1B12E_PLUGGEDLOADS_FAN,AF1B12ELIGHTEQUIPMENTSCHEDULE,AF1B12E,136.54,100.0,240.000,1.758,2.400,0.000,0.534,0.000,0.466,General,0.000,240.000
 ElectricEquipment Internal Gains Nominal, AF1B12F_PLUGGEDLOADS_PROJECTOREPSON,AF1B12FACUSCHEDULE,AF1B12F,137.62,100.0,277.000,2.013,2.770,0.000,0.534,0.000,0.466,General,0.000,277.000
 ElectricEquipment Internal Gains Nominal, AF1B12F_PLUGGEDLOADS_FAN,AF1B12FLIGHTEQUIPMENTSCHEDULE,AF1B12F,137.62,100.0,240.000,1.744,2.400,0.000,0.534,0.000,0.466,General,0.000,240.000
 ElectricEquipment Internal Gains Nominal, AF1B03_PLUGGEDLOADS_FAN,AF1B03LIGHTEQUIPMENTSCHEDULE,AF1B03,62.83,0.0,240.000,3.820,N/A,0.000,0.534,0.000,0.466,General,0.000,240.000
 ElectricEquipment Internal Gains Nominal, AF1B04_PLUGGEDLOADS_FAN,AF1B04LIGHTEQUIPMENTSCHEDULE,AF1B04,67.32,0.0,240.000,3.565,N/A,0.000,0.534,0.000,0.466,General,0.000,240.000
 ElectricEquipment Internal Gains Nominal, AF2B06_PLUGGEDLOADS_FAN,AF2B06LIGHTEQUIPMENTSCHEDULE,AF2B06,91.39,100.0,120.000,1.313,1.200,0.000,0.534,0.000,0.466,General,0.000,120.000
 ElectricEquipment Internal Gains Nominal, AF2B07A_PLUGGEDLOADS_FAN,AF2B07ALIGHTEQUIPMENTSCHEDULE,AF2B07A,123.30,100.0,240.000,1.946,2.400,0.000,0.534,0.000,0.466,General,0.000,240.000
 ElectricEquipment Internal Gains Nominal, AF2B07B_PLUGGEDLOADS_FAN,AF2B07BLIGHTEQUIPMENTSCHEDULE,AF2B07B,146.86,100.0,300.000,2.043,3.000,0.000,0.534,0.000,0.466,General,0.000,300.000
 ElectricEquipment Internal Gains Nominal, AF2B07C_PLUGGEDLOADS_FAN,AF2B07CLIGHTEQUIPMENTSCHEDULE,AF2B07C,133.29,100.0,195.000,1.463,1.950,0.000,0.534,0.000,0.466,General,0.000,195.000
 ElectricEquipment Internal Gains Nominal, AF2B07D_PLUGGEDLOADS_FAN,AF2B07DLIGHTEQUIPMENTSCHEDULE,AF2B07D,147.08,100.0,195.000,1.326,1.950,0.000,0.534,0.000,0.466,General,0.000,195.000
 ElectricEquipment Internal Gains Nominal, AF2B07E_PLUGGEDLOADS_FAN,AF2B07ELIGHTEQUIPMENTSCHEDULE,AF2B07E,127.07,100.0,195.000,1.535,1.950,0.000,0.534,0.000,0.466,General,0.000,195.000
 ElectricEquipment Internal Gains Nominal, AF2B07F_PLUGGEDLOADS_FAN,AF2B07FLIGHTEQUIPMENTSCHEDULE,AF2B07F,133.73,100.0,195.000,1.458,1.950,0.000,0.534,0.000,0.466,General,0.000,195.000
 ElectricEquipment Internal Gains Nominal, GUIDANCE CONFERENCE_PLUGGEDLOADS_FAN,SAFADOFFICES_SCHEDULE,GUIDANCE CONFERENCE,18.03,10.0,180.000,9.983,18.000,0.000,0.534,0.000,0.466,General,0.000,180.000
 ElectricEquipment Internal Gains Nominal, GUIDANCE CONFERENCE_PLUGGEDLOADS_PC,SAFADOFFICES_SCHEDULE,GUIDANCE CONFERENCE,18.03,10.0,400.000,22.185,40.000,0.000,0.534,0.000,0.466,General,0.000,400.000
 ElectricEquipment Internal Gains Nominal, CLINIC_PLUGGEDLOADS_REF,SAFADOFFICES_SCHEDULE,CLINIC,9.61,10.0,77.000,8.015,7.700,0.000,0.534,0.000,0.466,General,0.000,77.000
 ElectricEquipment Internal Gains Nominal, GUIDANCE OFFICE_PLUGGEDLOADS_FAN,SAFADOFFICES_SCHEDULE,GUIDANCE OFFICE,44.30,10.0,60.000,1.354,6.000,0.000,0.534,0.000,0.466,General,0.000,60.000
 ElectricEquipment Internal Gains Nominal, CREATIVE HUB OFFICE_PLUGGEDLOADS_APPLE,SAFADOFFICES_SCHEDULE,CREATIVE HUB,373.42,10.0,200.000,0.536,20.000,0.000,0.534,0.000,0.466,General,0.000,200.000
 ElectricEquipment Internal Gains Nominal, ACC SERVICE BUREAU_PLUGGEDLOADS_PC,SAFADOFFICES_SCHEDULE,SERVICE BUREAU,105.81,10.0,800.000,7.561,80.000,0.000,0.534,0.000,0.466,General,0.000,800.000
 ElectricEquipment Internal Gains Nominal, ACC SERVICE BUREAU_PLUGGEDLOADS_APPLE,SAFADOFFICES_SCHEDULE,SERVICE BUREAU,105.81,10.0,200.000,1.890,20.000,0.000,0.534,0.000,0.466,General,0.000,200.000
 ElectricEquipment Internal Gains Nominal, ACC_PLUGGEDLOADS_APPLE,SAFADOFFICES_SCHEDULE,ACC OFFICE,124.52,10.0,800.000,6.425,80.000,0.000,0.534,0.000,0.466,General,0.000,800.000
 ElectricEquipment Internal Gains Nominal, ACC_PLUGGEDLOADS_REF,EVERYDAYON,ACC OFFICE,124.52,10.0,77.000,0.618,7.700,0.000,0.534,0.000,0.466,General,77.000,77.000
 ElectricEquipment Internal Gains Nominal, GUIDANCE CONFERENCE_PLUGGEDLOADS_PRINTER,SAFADOFFICES_SCHEDULE,GUIDANCE CONFERENCE,18.03,10.0,20.000,1.109,2.000,0.000,0.534,0.000,0.466,General,0.000,20.000
 ElectricEquipment Internal Gains Nominal, COUNSELOR_PLUGGEDLOADS_PC,SAFADOFFICES_SCHEDULE,GUIDANCE CONSELOR,32.60,10.0,100.000,3.067,10.000,0.000,0.534,0.000,0.466,General,0.000,100.000
 ElectricEquipment Internal Gains Nominal, ACC SERVICE BUREAU_PLUGGEDLOADS_PRINTER,SAFADOFFICES_SCHEDULE,SERVICE BUREAU,105.81,10.0,100.000,0.945,10.000,0.000,0.534,0.000,0.466,General,0.000,100.000
 ElectricEquipment Internal Gains Nominal, ACC_PLUGGEDLOADS_PRINTER,SAFADOFFICES_SCHEDULE,ACC OFFICE,124.52,10.0,60.000,0.482,6.000,0.000,0.534,0.000,0.466,General,0.000,60.000
 ElectricEquipment Internal Gains Nominal, ACC_PLUGGEDLOADS_PC,SAFADOFFICES_SCHEDULE,ACC OFFICE,124.52,10.0,400.000,3.212,40.000,0.000,0.534,0.000,0.466,General,0.000,400.000
 ElectricEquipment Internal Gains Nominal, FINE ARTS DEPT_PLUGGEDLOADS_PC,SAFADOFFICES_SCHEDULE,FINE ARTS DEPARTMENT,130.86,10.0,100.000,0.764,10.000,0.000,0.534,0.000,0.466,General,0.000,100.000
 ElectricEquipment Internal Gains Nominal, FINE ARTS DEPT_PLUGGEDLOADS_APPLE,SAFADOFFICES_SCHEDULE,FINE ARTS DEPARTMENT,130.86,10.0,200.000,1.528,20.000,0.000,0.534,0.000,0.466,General,0.000,200.000
 ElectricEquipment Internal Gains Nominal, FINE ARTS DEPT_PLUGGEDLOADS_PRINTER,SAFADOFFICES_SCHEDULE,FINE ARTS DEPARTMENT,130.86,10.0,40.000,0.306,4.000,0.000,0.534,0.000,0.466,General,0.000,40.000
 ElectricEquipment Internal Gains Nominal, FINE ARTS FACULTY_PLUGGEDLOADS_PROJECTOR,SAFADOFFICES_SCHEDULE,FACULTY ROOM_FINE ARTS,121.24,10.0,300.000,2.474,30.000,0.000,0.534,0.000,0.466,General,0.000,300.000
 ElectricEquipment Internal Gains Nominal, FINE ARTS FACULTY_PLUGGEDLOADS_TV,SAFADOFFICES_SCHEDULE,FACULTY ROOM_FINE ARTS,121.24,10.0,40.000,0.330,4.000,0.000,0.534,0.000,0.466,General,0.000,40.000
 ElectricEquipment Internal Gains Nominal, FINE ARTS FACULTY_PLUGGEDLOADS_WATER DISPENSER,SAFADOFFICES_SCHEDULE,FACULTY ROOM_FINE ARTS,121.24,10.0,300.000,2.474,30.000,0.000,0.534,0.000,0.466,General,0.000,300.000
 ElectricEquipment Internal Gains Nominal, FINE ARTS FACULTY_PLUGGEDLOADS_REF,EVERYDAYON,FACULTY ROOM_FINE ARTS,121.24,10.0,77.000,0.635,7.700,0.000,0.534,0.000,0.466,General,77.000,77.000
 ElectricEquipment Internal Gains Nominal, ARCHITECTURE FACULTY_PLUGGEDLOADS_PC,SAFADOFFICES_SCHEDULE,FACULTY ROOM_ARCHITECTURE,202.67,10.0,1300.000,6.414,130.000,0.000,0.534,0.000,0.466,General,0.000,1300.000
 ElectricEquipment Internal Gains Nominal, ARCHITECTURE FACULTY_PLUGGEDLOADS_WATER DISPENSER,SAFADOFFICES_SCHEDULE,FACULTY ROOM_ARCHITECTURE,202.67,10.0,300.000,1.480,30.000,0.000,0.534,0.000,0.466,General,0.000,300.000
 ElectricEquipment Internal Gains Nominal, ARCHITECTURE FACULTY_PLUGGEDLOADS_REF,EVERYDAYON,FACULTY ROOM_ARCHITECTURE,202.67,10.0,77.000,0.380,7.700,0.000,0.534,0.000,0.466,General,77.000,77.000
 ElectricEquipment Internal Gains Nominal, ARCHITECTURE FACULTY_PLUGGEDLOADS_PRINTER,SAFADOFFICES_SCHEDULE,FACULTY ROOM_ARCHITECTURE,202.67,10.0,20.000,9.868E-002,2.000,0.000,0.534,0.000,0.466,General,0.000,20.000
 ElectricEquipment Internal Gains Nominal, ARCHITECTURE DEPT_PLUGGEDLOADS_PC,SAFADOFFICES_SCHEDULE,ARCHITECTURE DEPARTMENT,79.91,10.0,300.000,3.754,30.000,0.000,0.534,0.000,0.466,General,0.000,300.000
 ElectricEquipment Internal Gains Nominal, ARCHITECTURE DEPT_PLUGGEDLOADS_APPLE,SAFADOFFICES_SCHEDULE,ARCHITECTURE DEPARTMENT,79.91,10.0,600.000,7.509,60.000,0.000,0.534,0.000,0.466,General,0.000,600.000
 ElectricEquipment Internal Gains Nominal, ARCHITECTURE DEPT_PLUGGEDLOADS_PRINTER,SAFADOFFICES_SCHEDULE,ARCHITECTURE DEPARTMENT,79.91,10.0,20.000,0.250,2.000,0.000,0.534,0.000,0.466,General,0.000,20.000
 ElectricEquipment Internal Gains Nominal, DEAN SECRETARY OFFICE_PLUGGEDLOADS_PC,SAFADOFFICES_SCHEDULE,DEAN SECRETARY OFFICE,41.86,10.0,100.000,2.389,10.000,0.000,0.534,0.000,0.466,General,0.000,100.000
 ElectricEquipment Internal Gains Nominal, DEAN SECRETARY OFFICE_PLUGGEDLOADS_REF,EVERYDAYON,DEAN SECRETARY OFFICE,41.86,10.0,77.000,1.839,7.700,0.000,0.534,0.000,0.466,General,77.000,77.000
 ElectricEquipment Internal Gains Nominal, DEAN SECRETARY OFFICE_PLUGGEDLOADS_PRINTER,SAFADOFFICES_SCHEDULE,DEAN SECRETARY OFFICE,41.86,10.0,40.000,0.955,4.000,0.000,0.534,0.000,0.466,General,0.000,40.000
 ElectricEquipment Internal Gains Nominal, CONFERENCE ROOM_PLUGGEDLOADS_PROJECTOR,SAFADOFFICES_SCHEDULE,SAFAD CONFERENCE ROOM,43.67,10.0,300.000,6.870,30.000,0.000,0.534,0.000,0.466,General,0.000,300.000
 ElectricEquipment Internal Gains Nominal, CONFERENCE ROOM_PLUGGEDLOADS_WATER DISPENSER,SAFADOFFICES_SCHEDULE,SAFAD CONFERENCE ROOM,43.67,10.0,300.000,6.870,30.000,0.000,0.534,0.000,0.466,General,0.000,300.000
 ElectricEquipment Internal Gains Nominal, DEAN OFFICE_PLUGGEDLOADS_APPLE,SAFADOFFICES_SCHEDULE,DEAN OFFICE,42.96,10.0,200.000,4.655,20.000,0.000,0.534,0.000,0.466,General,0.000,200.000
 ElectricEquipment Internal Gains Nominal, AUXILLIARY OFFICES_PLUGGEDLOADS_TV,SAFADOFFICES_SCHEDULE,AUXILLIARY OFFICES,128.70,10.0,40.000,0.311,4.000,0.000,0.534,0.000,0.466,General,0.000,40.000
 ElectricEquipment Internal Gains Nominal, AUXILLIARY OFFICES_PLUGGEDLOADS_PC,SAFADOFFICES_SCHEDULE,AUXILLIARY OFFICES,128.70,10.0,500.000,3.885,50.000,0.000,0.534,0.000,0.466,General,0.000,500.000
 ElectricEquipment Internal Gains Nominal, AUXILLIARY OFFICES_PLUGGEDLOADS_APPLE,SAFADOFFICES_SCHEDULE,AUXILLIARY OFFICES,128.70,10.0,600.000,4.662,60.000,0.000,0.534,0.000,0.466,General,0.000,600.000
 ElectricEquipment Internal Gains Nominal, IPD_PLUGGEDLOADS_PC,SAFADOFFICES_SCHEDULE,IPD,104.53,10.0,900.000,8.610,90.000,0.000,0.534,0.000,0.466,General,0.000,900.000
 ElectricEquipment Internal Gains Nominal, IPD_PLUGGEDLOADS_FAN,SAFADOFFICES_SCHEDULE,IPD,104.53,10.0,60.000,0.574,6.000,0.000,0.534,0.000,0.466,General,0.000,60.000
 ElectricEquipment Internal Gains Nominal, IPD_PLUGGEDLOADS_PRINTER,SAFADOFFICES_SCHEDULE,IPD,104.53,10.0,60.000,0.574,6.000,0.000,0.534,0.000,0.466,General,0.000,60.000
 ElectricEquipment Internal Gains Nominal, VPPF_PLUGGEDLOADS_PROJECTOR,SAFADOFFICES_SCHEDULE,VPPF,104.96,10.0,300.000,2.858,30.000,0.000,0.534,0.000,0.466,General,0.000,300.000
 ElectricEquipment Internal Gains Nominal, VPPF_PLUGGEDLOADS_LAPTOP,SAFADOFFICES_SCHEDULE,VPPF,104.96,10.0,40.000,0.381,4.000,0.000,0.534,0.000,0.466,General,0.000,40.000
 ElectricEquipment Internal Gains Nominal, VPPF_PLUGGEDLOADS_PC,SAFADOFFICES_SCHEDULE,VPPF,104.96,10.0,400.000,3.811,40.000,0.000,0.534,0.000,0.466,General,0.000,400.000
 ElectricEquipment Internal Gains Nominal, INTERNETNETWORK,EVERYDAYON,PUMP ROOM,27.38,0.0,100.000,3.652,N/A,0.000,0.534,0.000,0.466,General,100.000,100.000
 ElectricEquipment Internal Gains Nominal, MOTOR,EVERYDAYON,PUMP ROOM,27.38,0.0,2000.000,73.035,N/A,0.000,0.534,0.000,0.466,General,2000.000,2000.000
! <Shadowing/Sun Position Calculations Annual Simulations>, Calculation Method, Value {days}, Allowable Number Figures in Shadow Overlap {}, Polygon Clipping Algorithm, Sky Diffuse Modeling Algorithm
Shadowing/Sun Position Calculations Annual Simulations,AverageOverDaysInFrequency,20,15000,SutherlandHodgman,SimpleSkyDiffuseModeling
! <Zone/Window Adjacency Daylighting Counts>, Zone Name, Number of Exterior Windows, Number of Exterior Windows in Adjacent Zones
Zone/Window Adjacency Daylighting Counts, AF305,3,0
! <Zone/Window Adjacency Daylighting Matrix>, Zone Name, Number of Adjacent Zones with Windows,Adjacent Zone Names - 1st 100 (max)
Zone/Window Adjacency Daylighting Matrix, AF305,0
! <ZoneInfiltration Airflow Stats Nominal>,Name,Schedule Name,Zone Name, Zone Floor Area {m2}, # Zone Occupants,Design Volume Flow Rate {m3/s},Volume Flow Rate/Floor Area {m3/s/m2},Volume Flow Rate/Exterior Surface Area {m3/s/m2},ACH - Air Changes per Hour,Equation A - Constant Term Coefficient {},Equation B - Temperature Term Coefficient {1/C},Equation C - Velocity Term Coefficient {s/m}, Equation D - Velocity Squared Term Coefficient {s2/m2}
 ZoneInfiltration Airflow Stats Nominal, AF1B12F SAFAD_INFILTRATION,SAFAD_INFILTRATION,AF1B12F,137.62,100.0,0.885,6.430E-003,2.990E-003,5.309,1.000,0.000,0.000,0.000
 ZoneInfiltration Airflow Stats Nominal, AF1B05 SAFAD_INFILTRATION,SAFAD_INFILTRATION,AF1B05,79.28,0.0,0.510,6.430E-003,4.597E-003,5.309,1.000,0.000,0.000,0.000
 ZoneInfiltration Airflow Stats Nominal, AF1B04 SAFAD_INFILTRATION,SAFAD_INFILTRATION,AF1B04,67.32,0.0,0.433,6.430E-003,6.894E-003,5.309,1.000,0.000,0.000,0.000
 ZoneInfiltration Airflow Stats Nominal, AF1B03 SAFAD_INFILTRATION,SAFAD_INFILTRATION,AF1B03,62.83,0.0,0.404,6.430E-003,4.066E-003,5.309,1.000,0.000,0.000,0.000
 ZoneInfiltration Airflow Stats Nominal, AF1B01 SAFAD_INFILTRATION,SAFAD_INFILTRATION,AF1B01,88.18,0.0,0.567,6.430E-003,4.878E-003,5.309,1.000,0.000,0.000,0.000
 ZoneInfiltration Airflow Stats Nominal, AF1B02 SAFAD_INFILTRATION,SAFAD_INFILTRATION,AF1B02,84.77,0.0,0.545,6.430E-003,4.790E-003,5.309,1.000,0.000,0.000,0.000
 ZoneInfiltration Airflow Stats Nominal, AF1B12B SAFAD_INFILTRATION,SAFAD_INFILTRATION,AF1B12B,182.44,100.0,1.173,6.430E-003,3.587E-003,5.309,1.000,0.000,0.000,0.000
 ZoneInfiltration Airflow Stats Nominal, AF1B12A SAFAD_INFILTRATION,SAFAD_INFILTRATION,AF1B12A,185.03,100.0,1.190,6.430E-003,3.137E-003,5.309,1.000,0.000,0.000,0.000
 ZoneInfiltration Airflow Stats Nominal, AF1B10A-AF1B10B_1 SAFAD_INFILTRATION,SAFAD_INFILTRATION,AF1B10A-AF1B10B_1,50.37,0.0,0.324,6.430E-003,3.720E-003,5.309,1.000,0.000,0.000,0.000
 ZoneInfiltration Airflow Stats Nominal, AF1B10A-AF1B10B_2 SAFAD_INFILTRATION,SAFAD_INFILTRATION,AF1B10A-AF1B10B_2,61.07,0.0,0.393,6.430E-003,7.399E-003,5.309,1.000,0.000,0.000,0.000
 ZoneInfiltration Airflow Stats Nominal, AF1B10A-AF1B10B_4 SAFAD_INFILTRATION,SAFAD_INFILTRATION,AF1B10A-AF1B10B_4,63.60,0.0,0.409,6.430E-003,7.625E-003,5.309,1.000,0.000,0.000,0.000
 ZoneInfiltration Airflow Stats Nominal, AF1B10A-AF1B10B_5 SAFAD_INFILTRATION,SAFAD_INFILTRATION,AF1B10A-AF1B10B_5,62.48,0.0,0.402,6.430E-003,4.121E-003,5.309,1.000,0.000,0.000,0.000
 ZoneInfiltration Airflow Stats Nominal, AF1B10A-AF1B10B_3 SAFAD_INFILTRATION,SAFAD_INFILTRATION,AF1B10A-AF1B10B_3,62.15,0.0,0.400,6.430E-003,7.478E-003,5.309,1.000,0.000,0.000,0.000
 ZoneInfiltration Airflow Stats Nominal, CONSERVATION LAB SAFAD_INFILTRATION,SAFAD_INFILTRATION,CONSERVATION LAB,124.52,10.0,0.801,6.430E-003,4.077E-003,5.309,1.000,0.000,0.000,0.000
 ZoneInfiltration Airflow Stats Nominal, AF1B12E SAFAD_INFILTRATION,SAFAD_INFILTRATION,AF1B12E,136.54,100.0,0.878,6.430E-003,3.572E-003,5.309,1.000,0.000,0.000,0.000
 ZoneInfiltration Airflow Stats Nominal, AF1B12D SAFAD_INFILTRATION,SAFAD_INFILTRATION,AF1B12D,133.09,100.0,0.856,6.430E-003,3.584E-003,5.309,1.000,0.000,0.000,0.000
 ZoneInfiltration Airflow Stats Nominal, AF101 SAFAD_INFILTRATION,SAFAD_INFILTRATION,AF101,63.08,100.0,0.301,4.778E-003,4.049E-003,5.309,1.000,0.000,0.000,0.000
 ZoneInfiltration Airflow Stats Nominal, AF102 SAFAD_INFILTRATION,SAFAD_INFILTRATION,AF102,65.62,100.0,0.314,4.778E-003,4.111E-003,5.309,1.000,0.000,0.000,0.000
 ZoneInfiltration Airflow Stats Nominal, AF103 SAFAD_INFILTRATION,SAFAD_INFILTRATION,AF103,49.67,100.0,0.237,4.778E-003,3.493E-003,5.309,1.000,0.000,0.000,0.000
 ZoneInfiltration Airflow Stats Nominal, AF104 SAFAD_INFILTRATION,SAFAD_INFILTRATION,AF104,47.76,100.0,0.228,4.778E-003,5.331E-003,5.309,1.000,0.000,0.000,0.000
 ZoneInfiltration Airflow Stats Nominal, GUIDANCE OFFICE SAFAD_INFILTRATION,SAFAD_INFILTRATION,GUIDANCE OFFICE,44.30,10.0,0.212,4.778E-003,1.554E-003,5.309,1.000,0.000,0.000,0.000
[...]
 DX Cooling Coil Standard Rating Information, Coil:Cooling:DX:SingleSpeed, AFCB4WINDAC2DXCOIL, 6408.6, 2.62, 8.93, 9.51, 9.90
 Component Sizing Information, ZoneHVAC:WindowAirConditioner, AFCB3WINDAC1, User-Specified Maximum Supply Air Flow Rate [m3/s], 0.31000
 Component Sizing Information, Fan:OnOff, AFCB3WINDAC1FAN, User-Specified Maximum Flow Rate [m3/s], 0.31000
 Component Sizing Information, Coil:Cooling:DX:SingleSpeed, AFCB3WINDAC1DXCOIL, User-Specified Rated Air Flow Rate [m3/s], 0.31000
 Component Sizing Information, Coil:Cooling:DX:SingleSpeed, AFCB3WINDAC1DXCOIL, User-Specified Gross Rated Total Cooling Capacity [W], 6476.00000
 Component Sizing Information, Coil:Cooling:DX:SingleSpeed, AFCB3WINDAC1DXCOIL, User-Specified Gross Rated Sensible Heat Ratio, 0.75000
 DX Cooling Coil Standard Rating Information, Coil:Cooling:DX:SingleSpeed, AFCB3WINDAC1DXCOIL, 6408.6, 2.62, 8.93, 9.51, 9.90
 Component Sizing Information, ZoneHVAC:WindowAirConditioner, AFCB3WINDAC2, User-Specified Maximum Supply Air Flow Rate [m3/s], 0.31000
 Component Sizing Information, Fan:OnOff, AFCB3WINDAC2FAN, User-Specified Maximum Flow Rate [m3/s], 0.31000
 Component Sizing Information, Coil:Cooling:DX:SingleSpeed, AFCB3WINDAC2DXCOIL, User-Specified Rated Air Flow Rate [m3/s], 0.31000
 Component Sizing Information, Coil:Cooling:DX:SingleSpeed, AFCB3WINDAC2DXCOIL, User-Specified Gross Rated Total Cooling Capacity [W], 6476.00000
 Component Sizing Information, Coil:Cooling:DX:SingleSpeed, AFCB3WINDAC2DXCOIL, User-Specified Gross Rated Sensible Heat Ratio, 0.75000
 DX Cooling Coil Standard Rating Information, Coil:Cooling:DX:SingleSpeed, AFCB3WINDAC2DXCOIL, 6408.6, 2.62, 8.93, 9.51, 9.90
 Component Sizing Information, ZoneHVAC:WindowAirConditioner, AFCB2WINDAC1, User-Specified Maximum Supply Air Flow Rate [m3/s], 0.31000
 Component Sizing Information, Fan:OnOff, AFCB2WINDAC1FAN, User-Specified Maximum Flow Rate [m3/s], 0.31000
 Component Sizing Information, Coil:Cooling:DX:SingleSpeed, AFCB2WINDAC1DXCOIL, User-Specified Rated Air Flow Rate [m3/s], 0.31000
 Component Sizing Information, Coil:Cooling:DX:SingleSpeed, AFCB2WINDAC1DXCOIL, User-Specified Gross Rated Total Cooling Capacity [W], 6476.00000
 Component Sizing Information, Coil:Cooling:DX:SingleSpeed, AFCB2WINDAC1DXCOIL, User-Specified Gross Rated Sensible Heat Ratio, 0.75000
 DX Cooling Coil Standard Rating Information, Coil:Cooling:DX:SingleSpeed, AFCB2WINDAC1DXCOIL, 6408.6, 2.62, 8.93, 9.51, 9.90
 Component Sizing Information, ZoneHVAC:WindowAirConditioner, AFCB2WINDAC2, User-Specified Maximum Supply Air Flow Rate [m3/s], 0.31000
 Component Sizing Information, Fan:OnOff, AFCB2WINDAC2FAN, User-Specified Maximum Flow Rate [m3/s], 0.31000
 Component Sizing Information, Coil:Cooling:DX:SingleSpeed, AFCB2WINDAC2DXCOIL, User-Specified Rated Air Flow Rate [m3/s], 0.31000
 Component Sizing Information, Coil:Cooling:DX:SingleSpeed, AFCB2WINDAC2DXCOIL, User-Specified Gross Rated Total Cooling Capacity [W], 6476.00000
 Component Sizing Information, Coil:Cooling:DX:SingleSpeed, AFCB2WINDAC2DXCOIL, User-Specified Gross Rated Sensible Heat Ratio, 0.75000
 DX Cooling Coil Standard Rating Information, Coil:Cooling:DX:SingleSpeed, AFCB2WINDAC2DXCOIL, 6408.6, 2.62, 8.93, 9.51, 9.90
 Component Sizing Information, ZoneHVAC:WindowAirConditioner, AFCB1WINDAC1, User-Specified Maximum Supply Air Flow Rate [m3/s], 0.31000
 Component Sizing Information, Fan:OnOff, AFCB1WINDAC1FAN, User-Specified Maximum Flow Rate [m3/s], 0.31000
 Component Sizing Information, Coil:Cooling:DX:SingleSpeed, AFCB1WINDAC1DXCOIL, User-Specified Rated Air Flow Rate [m3/s], 0.31000
 Component Sizing Information, Coil:Cooling:DX:SingleSpeed, AFCB1WINDAC1DXCOIL, User-Specified Gross Rated Total Cooling Capacity [W], 6476.00000
 Component Sizing Information, Coil:Cooling:DX:SingleSpeed, AFCB1WINDAC1DXCOIL, User-Specified Gross Rated Sensible Heat Ratio, 0.75000
 DX Cooling Coil Standard Rating Information, Coil:Cooling:DX:SingleSpeed, AFCB1WINDAC1DXCOIL, 6408.6, 2.62, 8.93, 9.51, 9.90
 Component Sizing Information, ZoneHVAC:WindowAirConditioner, AFCB1WINDAC2, User-Specified Maximum Supply Air Flow Rate [m3/s], 0.31000
 Component Sizing Information, Fan:OnOff, AFCB1WINDAC2FAN, User-Specified Maximum Flow Rate [m3/s], 0.31000
 Component Sizing Information, Coil:Cooling:DX:SingleSpeed, AFCB1WINDAC2DXCOIL, User-Specified Rated Air Flow Rate [m3/s], 0.31000
 Component Sizing Information, Coil:Cooling:DX:SingleSpeed, AFCB1WINDAC2DXCOIL, User-Specified Gross Rated Total Cooling Capacity [W], 6476.00000
 Component Sizing Information, Coil:Cooling:DX:SingleSpeed, AFCB1WINDAC2DXCOIL, User-Specified Gross Rated Sensible Heat Ratio, 0.75000
 DX Cooling Coil Standard Rating Information, Coil:Cooling:DX:SingleSpeed, AFCB1WINDAC2DXCOIL, 6408.6, 2.62, 8.93, 9.51, 9.90
! <Environment>,Environment Name,Environment Type, Start Date, End Date, Start DayOfWeek, Duration {#days}, Source:Start DayOfWeek,  Use Daylight Saving, Use Holidays, Apply Weekend Holiday Rule,  Use Rain Values, Use Snow Values
! <Environment:Special Days>, Special Day Name, Special Day Type, Source, Start Date, Duration {#days}
! <Environment:Daylight Saving>, Daylight Saving Indicator, Source, Start Date, End Date
! <Environment:WarmupDays>, NumberofWarmupDays
Environment,RUNPERIOD,WeatherFileRunPeriod,04/01/2019,04/30/2020,Monday,30,Use RunPeriod Specified Day,Yes,No,No,Yes,Yes
Environment:Daylight Saving,No,
Environment:Special Days,NEW YEARS DAY,Holiday,InputFile,01/01,  1
Environment:Special Days,CHINESE NEW YEAR,Holiday,InputFile,02/05,  1
Environment:Special Days,EDSA,Holiday,InputFile,02/25,  1
Environment:Special Days,THE DAY OF VALOR,Holiday,InputFile,04/09,  1
Environment:Special Days,MAUNDY THURSDAY,Holiday,InputFile,04/18,  1
Environment:Special Days,GOOD FRIDAY,Holiday,InputFile,04/19,  1
Environment:Special Days,BLACK SATURDAY,Holiday,InputFile,04/20,  1
Environment:Special Days,EASTER SUNDAY,Holiday,InputFile,04/21,  1
Environment:Special Days,LABOR DAY,Holiday,InputFile,05/01,  1
Environment:Special Days,EIDUL-FITAR,Holiday,InputFile,06/06,  1
Environment:Special Days,INDEPENDENCE DAY,Holiday,InputFile,06/12,  1
Environment:Special Days,EID AL-ADHA,Holiday,InputFile,08/12,  1
Environment:Special Days,NINOY AQUINO DAY,Holiday,InputFile,08/21,  1
Environment:Special Days,NATIONAL HEROES DAY,Holiday,InputFile,08/26,  1
Environment:Special Days,ALL SAINTS DAY,Holiday,InputFile,11/01,  1
Environment:Special Days,ALL SOULS DAY,Holiday,InputFile,11/02,  1
Environment:Special Days,BONIFACIO DAY,Holiday,InputFile,11/30,  1
Environment:Special Days,IMMACULATE CONCEPTION,Holiday,InputFile,12/08,  1
Environment:Special Days,CHRISTMAS DAY,Holiday,InputFile,12/25,  1
Environment:Special Days,RIZAL DAY,Holiday,InputFile,12/30,  1
Environment:Special Days,ASH WEDNESDAY,Holiday,InputFile,04/17,  1
! <Sky Daylight Factors>, MonthAndDay, Zone Name, Window Name, Daylight Fac: Ref Pt #1, Daylight Fac: Ref Pt #2
 Clear Sky Daylight Factors,04/01,AF305,99041F,3.1167E-003,1.2786E-003
 Clear Turbid Sky Daylight Factors,04/01,AF305,99041F,2.5763E-003,1.0713E-003
 Intermediate Sky Daylight Factors,04/01,AF305,99041F,9.0346E-004,4.4335E-004
 Overcast Sky Daylight Factors,04/01,AF305,99041F,2.0503E-003,8.7170E-004
 Clear Sky Daylight Factors,04/01,AF305,CB4AF4,1.1550E-002,8.6264E-003
 Clear Turbid Sky Daylight Factors,04/01,AF305,CB4AF4,9.5441E-003,7.2048E-003
 Intermediate Sky Daylight Factors,04/01,AF305,CB4AF4,3.6647E-003,2.9930E-003
 Overcast Sky Daylight Factors,04/01,AF305,CB4AF4,7.7750E-003,6.1657E-003
 Clear Sky Daylight Factors,04/01,AF305,114AFF,2.9325E-003,1.1633E-003
 Clear Turbid Sky Daylight Factors,04/01,AF305,114AFF,2.3850E-003,9.5305E-004
 Intermediate Sky Daylight Factors,04/01,AF305,114AFF,7.5270E-004,3.3583E-004
 Overcast Sky Daylight Factors,04/01,AF305,114AFF,1.9571E-003,7.8336E-004
Environment:WarmupDays,  9
! <Warmup Convergence Information>,Zone Name,Environment Type/Name,Average Warmup Temperature Difference {deltaC},Std Dev Warmup Temperature Difference {deltaC},Max Temperature Pass/Fail Convergence,Min Temperature Pass/Fail Convergence,Average Warmup Load Difference {W},Std Dev Warmup Load Difference {W},Heating Load Pass/Fail Convergence,Cooling Load Pass/Fail Convergence
 Warmup Convergence Information,AF1B12F,RunPeriod: RUNPERIOD,0.1050563588,0.1885365037,Pass,Pass,8.5059126661E-003,8.0028870205E-002,Pass,Pass
 Warmup Convergence Information,AF1B05,RunPeriod: RUNPERIOD,2.8435429318E-002,3.5067126617E-002,Pass,Pass,0.1091144181,0.4809385786,Pass,Pass
 Warmup Convergence Information,AF1B04,RunPeriod: RUNPERIOD,1.6846303432E-002,2.6164526645E-002,Pass,Pass,0.1066639734,0.4231621373,Pass,Pass
 Warmup Convergence Information,AF1B03,RunPeriod: RUNPERIOD,9.1252357884E-003,2.0268488874E-002,Pass,Pass,0.4917484831,5.0076138612,Pass,Pass
 Warmup Convergence Information,AF1B01,RunPeriod: RUNPERIOD,5.8587811164E-002,3.5101856750E-002,Pass,Pass,0.0000000000,0.0000000000,Pass,Pass
 Warmup Convergence Information,AF1B02,RunPeriod: RUNPERIOD,5.4010089858E-002,3.3143948647E-002,Pass,Pass,0.0000000000,0.0000000000,Pass,Pass
 Warmup Convergence Information,AF1B12B,RunPeriod: RUNPERIOD,8.3745174960E-002,9.9709313064E-002,Pass,Pass,9.1997544999E-003,8.1017428713E-002,Pass,Pass
 Warmup Convergence Information,AF1B12A,RunPeriod: RUNPERIOD,9.5746140539E-002,0.1460830944,Pass,Pass,8.3977423365E-003,8.0888786377E-002,Pass,Pass
 Warmup Convergence Information,AF1B10A-AF1B10B_1,RunPeriod: RUNPERIOD,6.9471114341E-002,5.1221365388E-002,Pass,Pass,0.0000000000,0.0000000000,Pass,Pass
 Warmup Convergence Information,AF1B10A-AF1B10B_2,RunPeriod: RUNPERIOD,7.2476293031E-002,4.8590865423E-002,Pass,Pass,0.0000000000,0.0000000000,Pass,Pass
 Warmup Convergence Information,AF1B10A-AF1B10B_4,RunPeriod: RUNPERIOD,6.4380943404E-002,3.9923637535E-002,Pass,Pass,0.0000000000,0.0000000000,Pass,Pass
 Warmup Convergence Information,AF1B10A-AF1B10B_5,RunPeriod: RUNPERIOD,5.9178042894E-002,3.6513907966E-002,Pass,Pass,0.0000000000,0.0000000000,Pass,Pass
 Warmup Convergence Information,AF1B10A-AF1B10B_3,RunPeriod: RUNPERIOD,7.1268045448E-002,4.6504797690E-002,Pass,Pass,0.0000000000,0.0000000000,Pass,Pass
 Warmup Convergence Information,CONSERVATION LAB,RunPeriod: RUNPERIOD,6.0471967593E-002,4.0294464115E-002,Pass,Pass,0.0000000000,0.0000000000,Pass,Pass
 Warmup Convergence Information,AF1B12E,RunPeriod: RUNPERIOD,0.1073256305,0.1881825147,Pass,Pass,8.3123273118E-003,7.9839292108E-002,Pass,Pass
 Warmup Convergence Information,AF1B12D,RunPeriod: RUNPERIOD,9.8314527207E-002,0.1509334829,Pass,Pass,9.8413923462E-003,7.9954423506E-002,Pass,Pass
 Warmup Convergence Information,AF101,RunPeriod: RUNPERIOD,7.6561229441E-002,0.1885704076,Pass,Pass,2.1250312188E-002,0.1081525390,Pass,Pass
 Warmup Convergence Information,AF102,RunPeriod: RUNPERIOD,0.1087745343,0.3506842039,Pass,Pass,1.3972338815E-002,7.1116666745E-002,Pass,Pass
 Warmup Convergence Information,AF103,RunPeriod: RUNPERIOD,6.0746899383E-002,0.1883431170,Pass,Pass,4.4722334980E-002,0.1661986640,Pass,Pass
 Warmup Convergence Information,AF104,RunPeriod: RUNPERIOD,8.7519498356E-002,0.2357713178,Pass,Pass,9.3020714438E-003,8.1994538438E-002,Pass,Pass
 Warmup Convergence Information,ACC OFFICE,RunPeriod: RUNPERIOD,7.7839556520E-002,0.2161705485,Pass,Pass,9.1883212405E-003,7.5035831442E-002,Pass,Pass
 Warmup Convergence Information,SERVICE BUREAU,RunPeriod: RUNPERIOD,6.6958744029E-002,0.1950498196,Pass,Pass,1.0755703838E-002,7.0636706111E-002,Pass,Pass
 Warmup Convergence Information,AF111,RunPeriod: RUNPERIOD,0.1134717090,0.3137111017,Pass,Pass,8.1483987944E-003,7.1176307822E-002,Pass,Pass
 Warmup Convergence Information,AF109B,RunPeriod: RUNPERIOD,0.1028624078,0.2762666913,Pass,Pass,9.2056179386E-003,7.0680820334E-002,Pass,Pass
 Warmup Convergence Information,AF109A,RunPeriod: RUNPERIOD,8.7887309852E-002,0.3087512217,Pass,Pass,9.7855427998E-003,8.0531130208E-002,Pass,Pass
 Warmup Convergence Information,CREATIVE HUB,RunPeriod: RUNPERIOD,6.6506944678E-002,0.1142573336,Pass,Pass,8.5860480741E-003,8.0620459940E-002,Pass,Pass
 Warmup Convergence Information,AF211,RunPeriod: RUNPERIOD,0.1073513191,0.2608522762,Pass,Pass,1.6425237236E-002,8.7489450657E-002,Pass,Pass
 Warmup Convergence Information,AF210,RunPeriod: RUNPERIOD,8.3572239556E-002,0.2674048892,Pass,Pass,1.8877858036E-002,0.1075961371,Pass,Pass
 Warmup Convergence Information,AF209,RunPeriod: RUNPERIOD,8.7124255334E-002,0.2903546406,Pass,Pass,2.2885491400E-002,9.3839392174E-002,Pass,Pass
 Warmup Convergence Information,AF208,RunPeriod: RUNPERIOD,0.1144056893,0.3531914433,Pass,Pass,1.6795518865E-002,8.5170677495E-002,Pass,Pass
 Warmup Convergence Information,AF207,RunPeriod: RUNPERIOD,5.5735715821E-002,3.1291921838E-002,Pass,Pass,0.0000000000,0.0000000000,Pass,Pass
 Warmup Convergence Information,FINE ARTS DEPARTMENT,RunPeriod: RUNPERIOD,8.0717459256E-002,0.2139540265,Pass,Pass,1.0264695006E-002,7.0401060406E-002,Pass,Pass
 Warmup Convergence Information,FACULTY ROOM_FINE ARTS,RunPeriod: RUNPERIOD,6.8846563319E-002,0.1872802206,Pass,Pass,1.1504177992E-002,7.0747677777E-002,Pass,Pass
 Warmup Convergence Information,AF215,RunPeriod: RUNPERIOD,5.1875226467E-002,3.1289579232E-002,Pass,Pass,0.0000000000,0.0000000000,Pass,Pass
 Warmup Convergence Information,AF214,RunPeriod: RUNPERIOD,0.1023279017,0.2116288328,Pass,Pass,9.2185607902E-003,7.8576414283E-002,Pass,Pass
 Warmup Convergence Information,AF213,RunPeriod: RUNPERIOD,5.3630023032E-002,3.2181346627E-002,Pass,Pass,0.0000000000,0.0000000000,Pass,Pass
 Warmup Convergence Information,AF212,RunPeriod: RUNPERIOD,9.8649754745E-002,0.2282717323,Pass,Pass,7.7733518455E-003,7.8851645841E-002,Pass,Pass
 Warmup Convergence Information,DEAN OFFICE,RunPeriod: RUNPERIOD,7.6617211466E-002,0.2500687391,Pass,Pass,9.9385955411E-003,7.0460695656E-002,Pass,Pass
 Warmup Convergence Information,SAFAD CONFERENCE ROOM,RunPeriod: RUNPERIOD,6.8845732169E-002,0.2051077957,Pass,Pass,1.0121488953E-002,7.1854714174E-002,Pass,Pass
 Warmup Convergence Information,DEAN SECRETARY OFFICE,RunPeriod: RUNPERIOD,6.3318504828E-002,0.2022120564,Pass,Pass,9.8340688878E-003,6.9507324235E-002,Pass,Pass
 Warmup Convergence Information,ARCHITECTURE DEPARTMENT,RunPeriod: RUNPERIOD,7.6662169294E-002,0.2107561329,Pass,Pass,1.1606649259E-002,7.0152925847E-002,Pass,Pass
 Warmup Convergence Information,FACULTY ROOM_ARCHITECTURE,RunPeriod: RUNPERIOD,7.8868187906E-002,0.1999871493,Pass,Pass,9.7624918967E-003,7.0905146151E-002,Pass,Pass
 Warmup Convergence Information,AUXILLIARY OFFICES,RunPeriod: RUNPERIOD,7.3480985315E-002,0.2186987230,Pass,Pass,1.0874392242E-002,7.1698880472E-002,Pass,Pass
 Warmup Convergence Information,AF304,RunPeriod: RUNPERIOD,0.1092943760,0.2619498662,Pass,Pass,8.1798152532E-003,7.7858470414E-002,Pass,Pass
 Warmup Convergence Information,AF306,RunPeriod: RUNPERIOD,6.3216541346E-002,3.4533507320E-002,Pass,Pass,0.0000000000,0.0000000000,Pass,Pass
 Warmup Convergence Information,VPPF,RunPeriod: RUNPERIOD,7.2491222140E-002,0.1362421668,Pass,Pass,8.2441596795E-003,7.9950631296E-002,Pass,Pass
 Warmup Convergence Information,IPD_CR,RunPeriod: RUNPERIOD,6.1743022707E-002,3.1370800605E-002,Pass,Pass,0.0000000000,0.0000000000,Pass,Pass
 Warmup Convergence Information,IPD,RunPeriod: RUNPERIOD,9.5810262911E-002,0.2958626439,Pass,Pass,9.2350811662E-003,7.0758936477E-002,Pass,Pass
 Warmup Convergence Information,AF307,RunPeriod: RUNPERIOD,0.1051571058,0.1566927956,Pass,Pass,0.0000000000,0.0000000000,Pass,Pass
 Warmup Convergence Information,AF2B06,RunPeriod: RUNPERIOD,8.7547504429E-002,0.1256474541,Pass,Pass,0.0000000000,0.0000000000,Pass,Pass
 Warmup Convergence Information,AF2B07A,RunPeriod: RUNPERIOD,9.3781770874E-002,7.5502391257E-002,Pass,Pass,0.0000000000,0.0000000000,Pass,Pass
 Warmup Convergence Information,PAINTING STUDIO_1,RunPeriod: RUNPERIOD,5.2844578631E-002,3.3227064230E-002,Pass,Pass,0.0000000000,0.0000000000,Pass,Pass
 Warmup Convergence Information,PAINTING STUDIO_2,RunPeriod: RUNPERIOD,5.2007252816E-002,3.2675013983E-002,Pass,Pass,0.0000000000,0.0000000000,Pass,Pass
 Warmup Convergence Information,PAINTING STUDIO_3,RunPeriod: RUNPERIOD,4.9634649278E-002,3.1519182408E-002,Pass,Pass,0.0000000000,0.0000000000,Pass,Pass
 Warmup Convergence Information,AF2B07B,RunPeriod: RUNPERIOD,9.9096686640E-002,7.5335877495E-002,Pass,Pass,0.0000000000,0.0000000000,Pass,Pass
 Warmup Convergence Information,CANTEEN,RunPeriod: RUNPERIOD,3.7170778124E-002,2.6565140095E-002,Pass,Pass,0.0000000000,0.0000000000,Pass,Pass
 Warmup Convergence Information,GENERATOR AND EE ROOM,RunPeriod: RUNPERIOD,4.8659785144E-002,3.1033668702E-002,Pass,Pass,0.0000000000,0.0000000000,Pass,Pass
 Warmup Convergence Information,AF308,RunPeriod: RUNPERIOD,0.1118975085,0.2116551720,Pass,Pass,0.0000000000,0.0000000000,Pass,Pass
 Warmup Convergence Information,AF1B12C,RunPeriod: RUNPERIOD,9.4312317654E-002,0.1348226437,Pass,Pass,8.9989945102E-003,8.0209162620E-002,Pass,Pass
 Warmup Convergence Information,AF110,RunPeriod: RUNPERIOD,8.4167615108E-002,0.2547498470,Pass,Pass,9.0302886928E-003,7.0194592659E-002,Pass,Pass
 Warmup Convergence Information,AF2B07C,RunPeriod: RUNPERIOD,0.1046449105,8.3540071358E-002,Pass,Pass,0.0000000000,0.0000000000,Pass,Pass
 Warmup Convergence Information,AF2B07D,RunPeriod: RUNPERIOD,8.8805093339E-002,6.7309247012E-002,Pass,Pass,0.0000000000,0.0000000000,Pass,Pass
 Warmup Convergence Information,AF2B07E,RunPeriod: RUNPERIOD,9.0656440851E-002,6.9616051183E-002,Pass,Pass,0.0000000000,0.0000000000,Pass,Pass
 Warmup Convergence Information,AF2B07F,RunPeriod: RUNPERIOD,7.9768927771E-002,6.6513233926E-002,Pass,Pass,0.0000000000,0.0000000000,Pass,Pass
 Warmup Convergence Information,GUIDANCE OFFICE,RunPeriod: RUNPERIOD,9.3889782556E-002,0.2912650023,Pass,Pass,1.0151327272E-002,6.8758792852E-002,Pass,Pass
 Warmup Convergence Information,CLINIC,RunPeriod: RUNPERIOD,9.0601844131E-002,0.3279206299,Pass,Pass,1.1946723307E-002,6.7318923532E-002,Pass,Pass
 Warmup Convergence Information,GUIDANCE CONFERENCE,RunPeriod: RUNPERIOD,0.1855029225,0.3894080867,Pass,Pass,0.0000000000,0.0000000000,Pass,Pass
 Warmup Convergence Information,GUIDANCE CONSELOR,RunPeriod: RUNPERIOD,0.1108745041,0.4506063376,Pass,Pass,9.5863870441E-003,5.8353774901E-002,Pass,Pass
 Warmup Convergence Information,FIRST FLOOR CR,RunPeriod: RUNPERIOD,3.1646881492E-002,1.7358522494E-002,Pass,Pass,0.0000000000,0.0000000000,Pass,Pass
 Warmup Convergence Information,SECOND FLOOR CR,RunPeriod: RUNPERIOD,3.4607522755E-002,1.7727362283E-002,Pass,Pass,0.0000000000,0.0000000000,Pass,Pass
 Warmup Convergence Information,BASEMENT 3 CR,RunPeriod: RUNPERIOD,2.5483181749E-002,1.3822555643E-002,Pass,Pass,0.0000000000,0.0000000000,Pass,Pass
 Warmup Convergence Information,PUMP ROOM,RunPeriod: RUNPERIOD,2.3235922634E-002,1.2044866952E-002,Pass,Pass,0.0000000000,0.0000000000,Pass,Pass
 Warmup Convergence Information,AF305,RunPeriod: RUNPERIOD,6.6616406321E-002,6.6677688324E-002,Pass,Pass,0.0000000000,0.0000000000,Pass,Pass
 Warmup Convergence Information,CB4 CLASSROOM,RunPeriod: RUNPERIOD,5.1685725168E-002,0.1378378003,Pass,Pass,2.1502325983E-002,0.1060516743,Pass,Pass
 Warmup Convergence Information,CB3 CLASSROOM,RunPeriod: RUNPERIOD,4.9054180733E-002,0.1242943501,Pass,Pass,4.4245379270E-002,0.1888025274,Pass,Pass
 Warmup Convergence Information,CB2 CLASSROOM,RunPeriod: RUNPERIOD,5.9903015776E-002,0.1590259072,Pass,Pass,4.1638408196E-002,0.1349518000,Pass,Pass
 Warmup Convergence Information,CB1 CLASSROOM,RunPeriod: RUNPERIOD,5.8219619543E-002,0.1766954412,Pass,Pass,2.8477044490E-002,0.1155237147,Pass,Pass
! <Program Control Information:Threads/Parallel Sims>, Threading Supported,Maximum Number of Threads, Env Set Threads (OMP_NUM_THREADS), EP Env Set Threads (EP_OMP_NUM_THREADS), IDF Set Threads, Number of Threads Used (Interior Radiant Exchange), Number Nominal Surfaces, Number Parallel Sims
Program Control:Threads/Parallel Sims, No,1, N/A, N/A, N/A, N/A, N/A, N/A
End of Data
