Program Version,EnergyPlus, Version 8.7.0-78a111df4a, YMD=2019.11.21 11:12,IDD_Version 8.7.0
Var Type (reported time step),Var Report Type,Variable Name [Units]
Zone,Meter,Electricity:Facility [J]
Zone,Meter,Electricity:Building [J]
Zone,Meter,Electricity:Zone:ZONE 1_TEST [J]
Zone,Meter,InteriorLights:Electricity [J]
Zone,Meter,InteriorLights:Electricity:Zone:ZONE 1_TEST [J]
Zone,Meter,General:InteriorLights:Electricity [J]
Zone,Meter,InteriorEquipment:Electricity [J]
Zone,Meter,InteriorEquipment:Electricity:Zone:ZONE 1_TEST [J]
Zone,Meter,General:InteriorEquipment:Electricity [J]
Zone,Meter,EnergyTransfer:Facility [J]
Zone,Meter,EnergyTransfer:Building [J]
Zone,Meter,EnergyTransfer:Zone:ZONE 1_TEST [J]
Zone,Meter,Heating:EnergyTransfer [J]
Zone,Meter,Heating:EnergyTransfer:Zone:ZONE 1_TEST [J]
Zone,Meter,Cooling:EnergyTransfer [J]
Zone,Meter,Cooling:EnergyTransfer:Zone:ZONE 1_TEST [J]
Zone,Meter,Electricity:HVAC [J]
Zone,Meter,Fans:Electricity [J]
Zone,Meter,General:Fans:Electricity [J]
Zone,Meter,EnergyTransfer:HVAC [J]
Zone,Meter,CoolingCoils:EnergyTransfer [J]
Zone,Meter,Cooling:Electricity [J]
Zone,Meter,Electricity:Plant [J]
Zone,Meter,ElectricityPurchased:Facility [J]
Zone,Meter,ElectricityPurchased:Plant [J]
Zone,Meter,Cogeneration:ElectricityPurchased [J]
Zone,Meter,ElectricitySurplusSold:Facility [J]
Zone,Meter,ElectricitySurplusSold:Plant [J]
Zone,Meter,Cogeneration:ElectricitySurplusSold [J]
Zone,Meter,ElectricityNet:Facility [J]
Zone,Meter,ElectricityNet:Plant [J]
Zone,Meter,Cogeneration:ElectricityNet [J]
Zone,Meter,Carbon Equivalent:Facility [kg]
Zone,Meter,CarbonEquivalentEmissions:Carbon Equivalent [kg]
