Program Version,EnergyPlus, Version 8.7.0-78a111df4a, YMD=2019.11.21 11:12
! <Version>, Version ID
 Version, 8.7
! <Timesteps per Hour>, #TimeSteps, Minutes per TimeStep {minutes}
 Timesteps per Hour,  6, 10
! <System Convergence Limits>, Minimum System TimeStep {minutes}, Max HVAC Iterations, Minimum Plant Iterations, Maximum Plant Iterations
 System Convergence Limits, 1, 20, 2, 8
! <Simulation Control>, Do Zone Sizing, Do System Sizing, Do Plant Sizing, Do Design Days, Do Weather Simulation, Do HVAC Sizing Simulation
 Simulation Control, No, No, No, Yes, Yes, No
! <Output Reporting Tolerances>, Tolerance for Time Heating Setpoint Not Met, Tolerance for Zone Cooling Setpoint Not Met Time
 Output Reporting Tolerances, 0.200, 0.200, 
! <Site:GroundTemperature:BuildingSurface>,Jan{C},Feb{C},Mar{C},Apr{C},May{C},Jun{C},Jul{C},Aug{C},Sep{C},Oct{C},Nov{C},Dec{C}
 Site:GroundTemperature:BuildingSurface,  18.00,  18.00,  18.00,  18.00,  18.00,  18.00,  18.00,  18.00,  18.00,  18.00,  18.00,  18.00
! <Site:GroundTemperature:FCfactorMethod>,Jan{C},Feb{C},Mar{C},Apr{C},May{C},Jun{C},Jul{C},Aug{C},Sep{C},Oct{C},Nov{C},Dec{C}
 Site:GroundTemperature:FCfactorMethod,  28.72,  29.17,  29.28,  29.16,  28.51,  27.79,  27.13,  26.66,  26.53,  26.78,  27.34,  28.03
! <Site:GroundTemperature:Shallow>,Jan{C},Feb{C},Mar{C},Apr{C},May{C},Jun{C},Jul{C},Aug{C},Sep{C},Oct{C},Nov{C},Dec{C}
 Site:GroundTemperature:Shallow,  13.00,  13.00,  13.00,  13.00,  13.00,  13.00,  13.00,  13.00,  13.00,  13.00,  13.00,  13.00
! <Site:GroundTemperature:Deep>,Jan{C},Feb{C},Mar{C},Apr{C},May{C},Jun{C},Jul{C},Aug{C},Sep{C},Oct{C},Nov{C},Dec{C}
 Site:GroundTemperature:Deep,  16.00,  16.00,  16.00,  16.00,  16.00,  16.00,  16.00,  16.00,  16.00,  16.00,  16.00,  16.00
! <Site:GroundReflectance>,Jan{dimensionless},Feb{dimensionless},Mar{dimensionless},Apr{dimensionless},May{dimensionless},Jun{dimensionless},Jul{dimensionless},Aug{dimensionless},Sep{dimensionless},Oct{dimensionless},Nov{dimensionless},Dec{dimensionless}
 Site:GroundReflectance,  0.20,  0.20,  0.20,  0.20,  0.20,  0.20,  0.20,  0.20,  0.20,  0.20,  0.20,  0.20
! <Site:GroundReflectance:SnowModifier>, Normal, Daylighting {dimensionless}
 Site:GroundReflectance:SnowModifier,   1.000,   1.000
! <Site:GroundReflectance:Snow>,Jan{dimensionless},Feb{dimensionless},Mar{dimensionless},Apr{dimensionless},May{dimensionless},Jun{dimensionless},Jul{dimensionless},Aug{dimensionless},Sep{dimensionless},Oct{dimensionless},Nov{dimensionless},Dec{dimensionless}
 Site:GroundReflectance:Snow,  0.20,  0.20,  0.20,  0.20,  0.20,  0.20,  0.20,  0.20,  0.20,  0.20,  0.20,  0.20
! <Site:GroundReflectance:Snow:Daylighting>,Jan{dimensionless},Feb{dimensionless},Mar{dimensionless},Apr{dimensionless},May{dimensionless},Jun{dimensionless},Jul{dimensionless},Aug{dimensionless},Sep{dimensionless},Oct{dimensionless},Nov{dimensionless},Dec{dimensionless}
 Site:GroundReflectance:Snow:Daylighting,  0.20,  0.20,  0.20,  0.20,  0.20,  0.20,  0.20,  0.20,  0.20,  0.20,  0.20,  0.20
! <Environment:Weather Station>,Wind Sensor Height Above Ground {m},Wind Speed Profile Exponent {},Wind Speed Profile Boundary Layer Thickness {m},Air Temperature Sensor Height Above Ground {m},Wind Speed Modifier Coefficient-Internal,Temperature Modifier Coefficient-Internal
Environment:Weather Station,10.000,0.140,270.000,1.500,1.586,9.750E-003
! <Site:Location>, Location Name, Latitude {N+/S- Deg}, Longitude {E+/W- Deg},  Time Zone Number {GMT+/-}, Elevation {m},  Standard Pressure at Elevation {Pa}, Standard RhoAir at Elevation
Site:Location,MACTAN - PHL IWEC2 WMO#=986460,10.30,123.97,8.00,24.00,101037,1.2009
! <Building Information>, Building Name,North Axis {deg},Terrain,  Loads Convergence Tolerance Value,Temperature Convergence Tolerance Value,  Solar Distribution,Maximum Number of Warmup Days,Minimum Number of Warmup Days
 Building Information,SAFAD Building,0.000,Suburbs,4.00000E-002,0.40000,FullInteriorAndExteriorWithReflectionsFromExteriorSurfaces,25,6
! <Inside Convection Algorithm>, Algorithm {Simple | TARP | CeilingDiffuser | AdaptiveConvectionAlgorithm}
Inside Convection Algorithm,TARP
! <Outside Convection Algorithm>, Algorithm {SimpleCombined | TARP | MoWitt | DOE-2 | AdaptiveConvectionAlgorithm}
Outside Convection Algorithm,DOE-2
! <Sky Radiance Distribution>, Value {Anisotropic}
Sky Radiance Distribution,Anisotropic
! <Zone Air Solution Algorithm>, Value {ThirdOrderBackwardDifference | AnalyticalSolution | EulerMethod}
 Zone Air Solution Algorithm, ThirdOrderBackwardDifference
! <Zone Air Carbon Dioxide Balance Simulation>, Simulation {Yes/No}, Carbon Dioxide Concentration
 Zone Air Carbon Dioxide Balance Simulation, No,N/A
! <Zone Air Generic Contaminant Balance Simulation>, Simulation {Yes/No}, Generic Contaminant Concentration
 Zone Air Generic Contaminant Balance Simulation, No,N/A
! <Zone Air Mass Flow Balance Simulation>, Enforce Mass Balance, Adjust Zone Mixing, Adjust Zone Infiltration {AddInfiltration | AdjustInfiltration | None}, Infiltration Zones {MixingSourceZonesOnly | AllZones}
 Zone Air Mass Flow Balance Simulation, No,N/A,N/A,N/A
! <Environment:Site Atmospheric Variation>,Wind Speed Profile Exponent {},Wind Speed Profile Boundary Layer Thickness {m},Air Temperature Gradient Coefficient {K/m}
Environment:Site Atmospheric Variation,0.220,370.000,6.500000E-003
! <Surface Geometry>,Starting Corner,Vertex Input Direction,Coordinate System,Daylight Reference Point Coordinate System,Rectangular (Simple) Surface Coordinate System
 Surface Geometry,UpperLeftCorner,Counterclockwise,RelativeCoordinateSystem,RelativeCoordinateSystem,RelativeToZoneOrigin
! <ShadingProperty Reflectance>,Shading Surface Name,Shading Type,Diffuse Solar Reflectance, Diffuse Visible Reflectance,Surface Glazing Fraction,Surface Glazing Contruction
ShadingProperty Reflectance,6C6F8D,Detached Shading:Building,0.20,0.20,0.00, N/A
ShadingProperty Reflectance,Mir-6C6F8D,Detached Shading:Building,0.20,0.20,0.00, N/A
ShadingProperty Reflectance,DF585A,Detached Shading:Building,0.20,0.20,0.00, N/A
ShadingProperty Reflectance,Mir-DF585A,Detached Shading:Building,0.20,0.20,0.00, N/A
ShadingProperty Reflectance,ILLUMAP,Detached Shading:Building,0.20,0.20,0.00, N/A
ShadingProperty Reflectance,Mir-ILLUMAP,Detached Shading:Building,0.20,0.20,0.00, N/A
! <Surface Heat Transfer Algorithm>, Value {CTF - ConductionTransferFunction | EMPD - MoisturePenetrationDepthConductionTransferFunction | CondFD - ConductionFiniteDifference | HAMT - CombinedHeatAndMoistureFiniteElement} - Description,Inside Surface Max Temperature Limit{C}, Surface Convection Coefficient Lower Limit {W/m2-K}, Surface Convection Coefficient Upper Limit {W/m2-K}
Surface Heat Transfer Algorithm, CTF - ConductionTransferFunction,200,0.10,1000.0
! <Shading Summary>, Number of Fixed Detached Shades, Number of Building Detached Shades, Number of Attached Shades
 Shading Summary,0,6,0
! <Zone Summary>, Number of Zones, Number of Zone Surfaces, Number of SubSurfaces
 Zone Summary,1,8,2
! <Zone Information>,Zone Name,North Axis {deg},Origin X-Coordinate {m},Origin Y-Coordinate {m},Origin Z-Coordinate {m},Centroid X-Coordinate {m},Centroid Y-Coordinate {m},Centroid Z-Coordinate {m},Type,Zone Multiplier,Zone List Multiplier,Minimum X {m},Maximum X {m},Minimum Y {m},Maximum Y {m},Minimum Z {m},Maximum Z {m},Ceiling Height {m},Volume {m3},Zone Inside Convection Algorithm {Simple-Detailed-CeilingDiffuser-TrombeWall},Zone Outside Convection Algorithm {Simple-Detailed-Tarp-MoWitt-DOE-2-BLAST}, Floor Area {m2},Exterior Gross Wall Area {m2},Exterior Net Wall Area {m2},Exterior Window Area {m2}, Number of Surfaces, Number of SubSurfaces, Number of Shading SubSurfaces,  Part of Total Building Area
 Zone Information, ZONE 1_TEST,0.0,0.00,0.00,0.00,-97.99,-35.90,-5.98,1,1,1,-101.56,-94.42,-42.06,-29.74,-7.60,-4.36,3.24,284.81,TARP,DOE-2,87.90,46.23,35.61,10.63,6,2,0,Yes
! <Zone Internal Gains Nominal>,Zone Name, Floor Area {m2},# Occupants,Area per Occupant {m2/person},Occupant per Area {person/m2},Interior Lighting {W/m2},Electric Load {W/m2},Gas Load {W/m2},Other Load {W/m2},Hot Water Eq {W/m2},Steam Equipment {W/m2},Sum Loads per Area {W/m2},Outdoor Controlled Baseboard Heat
 Zone Internal Gains Nominal, ZONE 1_TEST,87.90,80.0,1.099,0.910,0.819,3.413,0.000,0.000,0.000,0.000,4.232,No
! <People Internal Gains Nominal>,Name,Schedule Name,Zone Name,Zone Floor Area {m2},# Zone Occupants,Number of People {},People/Floor Area {person/m2},Floor Area per person {m2/person},Fraction Radiant,Fraction Convected,Sensible Fraction Calculation,Activity level,ASHRAE 55 Warnings,Carbon Dioxide Generation Rate,Nominal Minimum Number of People,Nominal Maximum Number of People
 People Internal Gains Nominal, AF211_PEOPLE,AF211_OCCUPANCY SCHEDULE,ZONE 1_TEST,87.90,80.0,80.0,0.910,1.099,0.300,0.700,AutoCalculate,OFFICE ACTIVITY SCHEDULE,No,3.8200E-008,0,80
! <Lights Internal Gains Nominal>,Name,Schedule Name,Zone Name,Zone Floor Area {m2},# Zone Occupants,Lighting Level {W},Lights/Floor Area {W/m2},Lights per person {W/person},Fraction Return Air,Fraction Radiant,Fraction Short Wave,Fraction Convected,Fraction Replaceable,End-Use Category,Nominal Minimum Lighting Level {W},Nominal Maximum Lighting Level {W}
 Lights Internal Gains Nominal, AF211_LIGHTS,AF211_LIGHTS_SCHEDULE,ZONE 1_TEST,87.90,80.0,72.000,0.819,0.900,0.000,1.000,0.000,0.000,0.000,General,0.000,72.000
! <ElectricEquipment Internal Gains Nominal>,Name,Schedule Name,Zone Name,Zone Floor Area {m2},# Zone Occupants,Equipment Level {W},Equipment/Floor Area {W/m2},Equipment per person {W/person},Fraction Latent,Fraction Radiant,Fraction Lost,Fraction Convected,End-Use SubCategory,Nominal Minimum Equipment Level {W},Nominal Maximum Equipment Level {W}
 ElectricEquipment Internal Gains Nominal, AF211_PROJECTOR ENERGY USE,PROJECTOR_SWITCHING,ZONE 1_TEST,87.90,80.0,300.000,3.413,3.750,0.000,0.500,0.000,0.500,General,0.000,300.000
! <Shadowing/Sun Position Calculations Annual Simulations>, Calculation Method, Value {days}, Allowable Number Figures in Shadow Overlap {}, Polygon Clipping Algorithm, Sky Diffuse Modeling Algorithm
Shadowing/Sun Position Calculations Annual Simulations,AverageOverDaysInFrequency,20,15000,SutherlandHodgman,DetailedSkyDiffuseModeling
! <Daylighting:Illuminance Maps>,#Maps,Style
Daylighting:Illuminance Maps,1,Comma
! <Daylighting:Illuminance Maps:Detail>,Name,Zone,XMin {m},XMax {m},Xinc {m},#X Points,YMin {m},YMax {m},Yinc {m},#Y Points,Z {m}
Daylighting:Illuminance Maps:Detail,ILLUMINANCEMAP,ZONE 1_TEST,-100.00,-95.00,0.56,10,-41.00,-30.00,1.22,10,-5.00
! <Zone/Window Adjacency Daylighting Counts>, Zone Name, Number of Exterior Windows, Number of Exterior Windows in Adjacent Zones
Zone/Window Adjacency Daylighting Counts, ZONE 1_TEST,2,0
! <Zone/Window Adjacency Daylighting Matrix>, Zone Name, Number of Adjacent Zones with Windows,Adjacent Zone Names - 1st 100 (max)
Zone/Window Adjacency Daylighting Matrix, ZONE 1_TEST,0
! <ZoneInfiltration Airflow Stats Nominal>,Name,Schedule Name,Zone Name, Zone Floor Area {m2}, # Zone Occupants,Design Volume Flow Rate {m3/s},Volume Flow Rate/Floor Area {m3/s/m2},Volume Flow Rate/Exterior Surface Area {m3/s/m2},ACH - Air Changes per Hour,Equation A - Constant Term Coefficient {},Equation B - Temperature Term Coefficient {1/C},Equation C - Velocity Term Coefficient {s/m}, Equation D - Velocity Squared Term Coefficient {s2/m2}
 ZoneInfiltration Airflow Stats Nominal, AF211_INFILTRATION,AF211_INFILTRATION,ZONE 1_TEST,87.90,80.0,7.911E-002,9.000E-004,5.898E-004,1.000,1.000,0.000,0.000,0.000
! <AirFlow Model>, Simple
 AirFlow Model, Simple
! <RoomAir Model>, Zone Name, Mixing/Mundt/UCSDDV/UCSDCV/UCSDUFI/UCSDUFE/User Defined
RoomAir Model,ZONE 1_TEST,Mixing/Well-Stirred
! <AirflowNetwork Model:Control>, No Multizone or Distribution/Multizone with Distribution/Multizone without Distribution/Multizone with Distribution only during Fan Operation
AirflowNetwork Model:Control,NoMultizoneOrDistribution
! <Zone Volume Capacitance Multiplier>, Sensible Heat Capacity Multiplier, Moisture Capacity Multiplier, Carbon Dioxide Capacity Multiplier, Generic Contaminant Capacity Multiplier
Zone Volume Capacitance Multiplier,   1.000 ,   1.000,   1.000,   1.000
! <Component Sizing Information>, Component Type, Component Name, Input Field Description, Value
 Component Sizing Information, ZoneHVAC:WindowAirConditioner, AF211WINDAC, User-Specified Maximum Supply Air Flow Rate [m3/s], 0.31000
 Component Sizing Information, Fan:OnOff, AF211WINDACFAN, User-Specified Maximum Flow Rate [m3/s], 0.31000
 Component Sizing Information, Coil:Cooling:DX:SingleSpeed, AF211WINDACDXCOIL, User-Specified Rated Air Flow Rate [m3/s], 0.31000
 Component Sizing Information, Coil:Cooling:DX:SingleSpeed, AF211WINDACDXCOIL, User-Specified Gross Rated Total Cooling Capacity [W], 6476.00000
 Component Sizing Information, Coil:Cooling:DX:SingleSpeed, AF211WINDACDXCOIL, User-Specified Gross Rated Sensible Heat Ratio, 0.75000
! <DX Cooling Coil Standard Rating Information>, Component Type, Component Name, Standard Rating (Net) Cooling Capacity {W}, Standard Rated Net COP {W/W}, EER {Btu/W-h}, SEER {Btu/W-h}, IEER {Btu/W-h}
 DX Cooling Coil Standard Rating Information, Coil:Cooling:DX:SingleSpeed, AF211WINDACDXCOIL, 6165.0, 2.50, 8.52, 9.04, 8.65
 Component Sizing Information, ZoneHVAC:WindowAirConditioner, AF211WINDAC2, User-Specified Maximum Supply Air Flow Rate [m3/s], 0.31000
 Component Sizing Information, Fan:OnOff, AF211WINDAC2FAN, User-Specified Maximum Flow Rate [m3/s], 0.31000
 Component Sizing Information, Coil:Cooling:DX:SingleSpeed, AF211WINDAC2DXCOIL, User-Specified Rated Air Flow Rate [m3/s], 0.31000
 Component Sizing Information, Coil:Cooling:DX:SingleSpeed, AF211WINDAC2DXCOIL, User-Specified Gross Rated Total Cooling Capacity [W], 6476.00000
 Component Sizing Information, Coil:Cooling:DX:SingleSpeed, AF211WINDAC2DXCOIL, User-Specified Gross Rated Sensible Heat Ratio, 0.75000
 DX Cooling Coil Standard Rating Information, Coil:Cooling:DX:SingleSpeed, AF211WINDAC2DXCOIL, 6165.0, 2.50, 8.52, 9.04, 8.65
! <Environment>,Environment Name,Environment Type, Start Date, End Date, Start DayOfWeek, Duration {#days}, Source:Start DayOfWeek,  Use Daylight Saving, Use Holidays, Apply Weekend Holiday Rule,  Use Rain Values, Use Snow Values
! <Environment:Special Days>, Special Day Name, Special Day Type, Source, Start Date, Duration {#days}
! <Environment:Daylight Saving>, Daylight Saving Indicator, Source, Start Date, End Date
! <Environment:WarmupDays>, NumberofWarmupDays
Environment,RUNPERIOD,WeatherFileRunPeriod,01/01/2019,01/31/2020,Sunday,31,Use RunPeriod Specified Day,Yes,No,No,Yes,Yes
Environment:Daylight Saving,No,
Environment:Special Days,NEW YEARS DAY,Holiday,InputFile,01/01,  1
Environment:Special Days,CHINESE NEW YEAR,Holiday,InputFile,02/05,  1
Environment:Special Days,EDSA,Holiday,InputFile,02/25,  1
Environment:Special Days,THE DAY OF VALOR,Holiday,InputFile,04/09,  1
Environment:Special Days,MAUNDY THURSDAY,Holiday,InputFile,04/18,  1
Environment:Special Days,GOOD FRIDAY,Holiday,InputFile,04/19,  1
Environment:Special Days,BLACK SATURDAY,Holiday,InputFile,04/20,  1
Environment:Special Days,EASTER SUNDAY,Holiday,InputFile,04/21,  1
Environment:Special Days,LABOR DAY,Holiday,InputFile,05/01,  1
Environment:Special Days,EIDUL-FITAR,Holiday,InputFile,06/06,  1
Environment:Special Days,INDEPENDENCE DAY,Holiday,InputFile,06/12,  1
Environment:Special Days,EID AL-ADHA,Holiday,InputFile,08/12,  1
Environment:Special Days,NINOY AQUINO DAY,Holiday,InputFile,08/21,  1
Environment:Special Days,NATIONAL HEROES DAY,Holiday,InputFile,08/26,  1
Environment:Special Days,ALL SAINTS DAY,Holiday,InputFile,11/01,  1
Environment:Special Days,ALL SOULS DAY,Holiday,InputFile,11/02,  1
Environment:Special Days,BONIFACIO DAY,Holiday,InputFile,11/30,  1
Environment:Special Days,IMMACULATE CONCEPTION,Holiday,InputFile,12/08,  1
Environment:Special Days,CHRISTMAS DAY,Holiday,InputFile,12/25,  1
Environment:Special Days,RIZAL DAY,Holiday,InputFile,12/30,  1
! <Sky Daylight Factors>, MonthAndDay, Zone Name, Window Name, Daylight Fac: Ref Pt #1, Daylight Fac: Ref Pt #2
 Clear Sky Daylight Factors,01/01,ZONE 1_TEST,BAC353,1.3412E-003,0.0000
 Clear Turbid Sky Daylight Factors,01/01,ZONE 1_TEST,BAC353,1.1146E-003,0.0000
 Intermediate Sky Daylight Factors,01/01,ZONE 1_TEST,BAC353,8.8731E-004,0.0000
 Overcast Sky Daylight Factors,01/01,ZONE 1_TEST,BAC353,1.4301E-003,0.0000
 Clear Sky Daylight Factors,01/01,ZONE 1_TEST,A26EDF,5.7042E-003,0.0000
 Clear Turbid Sky Daylight Factors,01/01,ZONE 1_TEST,A26EDF,5.7408E-003,0.0000
 Intermediate Sky Daylight Factors,01/01,ZONE 1_TEST,A26EDF,4.8491E-003,0.0000
 Overcast Sky Daylight Factors,01/01,ZONE 1_TEST,A26EDF,3.1407E-003,0.0000
Environment:WarmupDays,  6
! <Warmup Convergence Information>,Zone Name,Environment Type/Name,Average Warmup Temperature Difference {deltaC},Std Dev Warmup Temperature Difference {deltaC},Max Temperature Pass/Fail Convergence,Min Temperature Pass/Fail Convergence,Average Warmup Load Difference {W},Std Dev Warmup Load Difference {W},Heating Load Pass/Fail Convergence,Cooling Load Pass/Fail Convergence
 Warmup Convergence Information,ZONE 1_TEST,RunPeriod: RUNPERIOD,9.8352675280E-002,0.4287528094,Pass,Pass,1.3537698603E-002,7.9042158017E-002,Pass,Pass
! <Program Control Information:Threads/Parallel Sims>, Threading Supported,Maximum Number of Threads, Env Set Threads (OMP_NUM_THREADS), EP Env Set Threads (EP_OMP_NUM_THREADS), IDF Set Threads, Number of Threads Used (Interior Radiant Exchange), Number Nominal Surfaces, Number Parallel Sims
Program Control:Threads/Parallel Sims, No,1, N/A, N/A, N/A, N/A, N/A, N/A
End of Data
